REMARK  1 active torsions:
REMARK  status: ('A' for Active; 'I' for Inactive)
REMARK    1  A    between atoms: C_16  and  C_21 
ROOT
HETATM    1  C   UNK     0      23.384 -17.765   0.000  0.00  0.00     0.033 A 
HETATM    2  C   UNK     0      23.384 -19.305   0.000  0.00  0.00     0.152 A 
HETATM    3  C   UNK     0      24.718 -20.075   0.000  0.00  0.00     0.033 A 
HETATM    4  C   UNK     0      26.052 -19.305   0.000  0.00  0.00     0.003 A 
HETATM    5  C   UNK     0      26.052 -17.765   0.000  0.00  0.00     0.002 A 
HETATM    6  C   UNK     0      24.718 -16.995   0.000  0.00  0.00     0.006 A 
HETATM    7  C   UNK     0      27.385 -20.075   0.000  0.00  0.00    -0.000 A 
HETATM    8  C   UNK     0      28.719 -19.305   0.000  0.00  0.00    -0.006 A 
HETATM    9  C   UNK     0      28.719 -17.765   0.000  0.00  0.00     0.012 A 
HETATM   10  C   UNK     0      27.385 -16.995   0.000  0.00  0.00     0.037 A 
HETATM   11  C   UNK     0      28.719 -14.685   0.000  0.00  0.00    -0.049 A 
HETATM   12  C   UNK     0      27.385 -15.455   0.000  0.00  0.00    -0.059 A 
HETATM   13  O   UNK     0      22.051 -20.075   0.000  0.00  0.00    -0.224 OA
HETATM   14  C   UNK     0      26.052 -16.225   0.000  0.00  0.00     0.012 A 
HETATM   15  C   UNK     0      30.053 -13.915   0.000  0.00  0.00     0.029 A 
HETATM   16  C   UNK     0      31.517 -14.979   0.000  0.00  0.00    -0.048 A 
HETATM   17  C   UNK     0      30.053 -15.455   0.000  0.00  0.00     0.028 A 
HETATM   18  C   UNK     0      30.053 -16.995   0.000  0.00  0.00     0.021 A 
HETATM   19  C   UNK     0      31.517 -17.471   0.000  0.00  0.00    -0.001 A 
HETATM   20  C   UNK     0      32.423 -16.225   0.000  0.00  0.00     0.021 A 
ENDROOT
BRANCH  16  21
HETATM   21  C   UNK     0      31.993 -13.515   0.000  0.00  0.00    -0.028 A 
HETATM   22  C   UNK     0      30.963 -12.370   0.000  0.00  0.00     0.141 A 
HETATM   23  N   UNK     0      31.439 -10.906   0.000  0.00  0.00    -0.291 NA
HETATM   24  C   UNK     0      32.946 -10.586   0.000  0.00  0.00     0.121 A 
HETATM   25  C   UNK     0      33.976 -11.730   0.000  0.00  0.00     0.030 A 
HETATM   26  C   UNK     0      33.500 -13.195   0.000  0.00  0.00     0.025 A 
ENDBRANCH  16  21
TORSDOF 1
