REMARK  5 active torsions:
REMARK  status: ('A' for Active; 'I' for Inactive)
REMARK    1  A    between atoms: C_3  and  C_4 
REMARK       I    between atoms: C_4  and  N_6 
REMARK    2  A    between atoms: C_10  and  C_11 
REMARK    3  A    between atoms: C_13  and  C_21 
REMARK    4  A    between atoms: C_24  and  C_27 
REMARK       I    between atoms: C_27  and  N_29 
REMARK    5  A    between atoms: N_29  and  C_30 
ROOT
HETATM    1  C   UNK     0      -7.675   2.858   0.000  0.00  0.00     0.090 C 
HETATM    2  C   UNK     0      -6.268   2.231   0.000  0.00  0.00    -0.082 C 
HETATM    3  C   UNK     0      -4.861   1.605   0.000  0.00  0.00    -0.019 C 
ENDROOT
BRANCH   3   4
HETATM    4  C   UNK     0      -3.454   0.978   0.000  0.00  0.00     0.237 C 
HETATM    5  O   UNK     0      -3.293  -0.553   0.000  0.00  0.00    -0.162 OA
HETATM    6  N   UNK     0      -2.208   1.884   0.000  0.00  0.00    -0.301 N 
HETATM    7  C   UNK     0      -2.208   3.424   0.000  0.00  0.00     0.109 A 
HETATM    8  C   UNK     0      -0.744   1.408   0.000  0.00  0.00     0.073 A 
HETATM    9  C   UNK     0      -0.744   3.899   0.000  0.00  0.00     0.031 A 
HETATM   10  C   UNK     0       0.161   2.654   0.000  0.00  0.00     0.049 A 
BRANCH   8  11
HETATM   11  C   UNK     0      -0.268  -0.057   0.000  0.00  0.00     0.156 A 
HETATM   12  N   UNK     0      -1.173  -1.303   0.000  0.00  0.00    -0.226 NA
HETATM   13  C   UNK     0      -0.268  -2.549   0.000  0.00  0.00     0.093 A 
HETATM   14  C   UNK     0       1.197  -2.073   0.000  0.00  0.00     0.109 A 
HETATM   15  N   UNK     0       1.197  -0.533   0.000  0.00  0.00    -0.307 N 
HETATM   16  C   UNK     0       2.530  -2.843   0.000  0.00  0.00     0.163 A 
HETATM   17  C   UNK     0       2.530   0.237   0.000  0.00  0.00     0.134 A 
HETATM   18  C   UNK     0       3.864  -0.533   0.000  0.00  0.00     0.151 A 
HETATM   19  N   UNK     0       3.864  -2.073   0.000  0.00  0.00    -0.254 NA
HETATM   20  N   UNK     0       2.530  -4.383   0.000  0.00  0.00    -0.079 NA
BRANCH  13  21
HETATM   21  C   UNK     0      -0.744  -4.013   0.000  0.00  0.00    -0.024 A 
HETATM   22  C   UNK     0       0.287  -5.158   0.000  0.00  0.00     0.028 A 
HETATM   23  C   UNK     0      -0.189  -6.622   0.000  0.00  0.00     0.030 A 
HETATM   24  C   UNK     0      -1.696  -6.943   0.000  0.00  0.00     0.000 A 
HETATM   25  C   UNK     0      -2.726  -5.798   0.000  0.00  0.00     0.030 A 
HETATM   26  C   UNK     0      -2.250  -4.334   0.000  0.00  0.00     0.028 A 
BRANCH  24  27
HETATM   27  C   UNK     0      -2.171  -8.407   0.000  0.00  0.00     0.206 C 
HETATM   28  O   UNK     0      -3.678  -8.727   0.000  0.00  0.00    -0.170 OA
HETATM   29  N   UNK     0      -1.141  -9.552   0.000  0.00  0.00    -0.206 NA
BRANCH  29  30
HETATM   30  C   UNK     0      -1.617 -11.016   0.000  0.00  0.00     0.137 A 
HETATM   31  C   UNK     0      -0.586 -12.161   0.000  0.00  0.00     0.066 A 
HETATM   32  C   UNK     0      -1.062 -13.625   0.000  0.00  0.00     0.010 A 
HETATM   33  C   UNK     0      -2.569 -13.946   0.000  0.00  0.00     0.027 A 
HETATM   34  C   UNK     0      -3.599 -12.801   0.000  0.00  0.00     0.127 A 
HETATM   35  N   UNK     0      -3.123 -11.336   0.000  0.00  0.00    -0.257 NA
ENDBRANCH  29  30
ENDBRANCH  24  27
ENDBRANCH  13  21
ENDBRANCH   8  11
ENDBRANCH   3   4
TORSDOF 5
