REMARK  4 active torsions:
REMARK  status: ('A' for Active; 'I' for Inactive)
REMARK    1  A    between atoms: C_13  and  C_14 
REMARK    2  A    between atoms: C_14  and  C_15 
REMARK    3  A    between atoms: C_15  and  C_25 
REMARK    4  A    between atoms: C_25  and  N_26 
ROOT
HETATM    1  C   UNK     0      20.558 -19.336   0.000  0.00  0.00     0.252 A 
HETATM    2  N   UNK     0      20.558 -20.898   0.000  0.00  0.00    -0.226 NA
HETATM    3  C   UNK     0      21.964 -21.679   0.000  0.00  0.00     0.161 A 
HETATM    4  C   UNK     0      23.291 -20.898   0.000  0.00  0.00     0.050 A 
HETATM    5  C   UNK     0      23.291 -19.336   0.000  0.00  0.00     0.066 A 
HETATM    6  N   UNK     0      21.964 -18.555   0.000  0.00  0.00    -0.248 NA
HETATM    7  C   UNK     0      24.619 -21.679   0.000  0.00  0.00     0.021 A 
HETATM    8  C   UNK     0      25.946 -20.898   0.000  0.00  0.00     0.099 A 
HETATM    9  C   UNK     0      25.946 -19.336   0.000  0.00  0.00     0.096 A 
HETATM   10  C   UNK     0      24.619 -18.555   0.000  0.00  0.00     0.098 A 
HETATM   11  N   UNK     0      21.964 -23.240   0.000  0.00  0.00    -0.231 NA
HETATM   12  N   UNK     0      27.351 -22.069   0.000  0.00  0.00    -0.247 NA
HETATM   13  C   UNK     0      28.679 -21.288   0.000  0.00  0.00     0.073 A 
HETATM   14  C   UNK     0      23.291 -24.021   0.000  0.00  0.00     0.062 A 
HETATM   15  C   UNK     0      23.291 -25.504   0.000  0.00  0.00     0.085 A 
HETATM   16  C   UNK     0      24.619 -26.285   0.000  0.00  0.00     0.065 A 
HETATM   17  C   UNK     0      25.946 -25.504   0.000  0.00  0.00     0.129 A 
HETATM   18  C   UNK     0      25.946 -24.021   0.000  0.00  0.00     0.085 A 
HETATM   19  C   UNK     0      24.619 -23.240   0.000  0.00  0.00     0.000 A 
HETATM   20  F   UNK     0      27.351 -26.285   0.000  0.00  0.00    -0.208 F 
HETATM   21 Cl   UNK     0      24.619 -27.925   0.000  0.00  0.00    -0.085 Cl
HETATM   22  O   UNK     0      28.679 -19.727   0.000  0.00  0.00     0.000 OA
HETATM   23  O   UNK     0      27.050 -18.232   0.000  0.00  0.00    -0.329 OA
HETATM   24  C   UNK     0      28.612 -18.232   0.000  0.00  0.00     0.171 A 
HETATM   25  C   UNK     0      29.531 -19.497   0.000  0.00  0.00     0.012 A 
HETATM   26  C   UNK     0      31.018 -19.014   0.000  0.00  0.00     0.167 A 
HETATM   27  O   UNK     0      31.018 -17.450   0.000  0.00  0.00    -0.347 OA
HETATM   28  C   UNK     0      29.531 -16.967   0.000  0.00  0.00     0.177 A 
ENDROOT
BRANCH  13  29
HETATM   29  C   UNK     0      30.006 -22.069   0.000  0.00  0.00     0.049 C 
BRANCH  29  30
HETATM   30  C   UNK     0      31.411 -21.288   0.000  0.00  0.00     0.030 C 
BRANCH  30  31
HETATM   31  C   UNK     0      32.750 -22.091   0.000  0.00  0.00     0.098 C 
BRANCH  31  32
HETATM   32  N   UNK     0      34.116 -21.333   0.000  0.00  0.00    -0.365 N 
HETATM   33  C   UNK     0      35.491 -22.157   0.000  0.00  0.00     0.121 C 
HETATM   34  C   UNK     0      34.141 -19.805   0.000  0.00  0.00     0.121 C 
ENDBRANCH  31  32
ENDBRANCH  30  31
ENDBRANCH  29  30
ENDBRANCH  13  29
TORSDOF 4
