REMARK  1 active torsions:
REMARK  status: ('A' for Active; 'I' for Inactive)
REMARK    1  A    between atoms: N_5  and  C_7 
ROOT
HETATM    1  C   UNK     0      -6.421  -1.528   0.000  0.00  0.00     0.018 A 
HETATM    2  C   UNK     0      -5.095  -2.293   0.000  0.00  0.00     0.064 A 
HETATM    3  C   UNK     0      -3.762  -1.523   0.000  0.00  0.00     0.111 A 
HETATM    4  N   UNK     0      -3.762   0.017   0.000  0.00  0.00    -0.338 N 
HETATM    5  C   UNK     0      -5.088   0.782   0.000  0.00  0.00     0.020 A 
HETATM    6  C   UNK     0      -6.421   0.012   0.000  0.00  0.00     0.078 A 
HETATM    7  C   UNK     0      -2.422   0.791   0.000  0.00  0.00     0.033 A 
HETATM    8  C   UNK     0      -1.089   0.021   0.000  0.00  0.00     0.065 A 
HETATM    9  C   UNK     0       0.244   0.791   0.000  0.00  0.00    -0.035 A 
HETATM   10  C   UNK     0       0.244   2.331   0.000  0.00  0.00     0.000 A 
HETATM   11  C   UNK     0      -1.089   3.101   0.000  0.00  0.00     0.051 A 
HETATM   12  C   UNK     0      -2.422   2.331   0.000  0.00  0.00    -0.027 A 
HETATM   13  C   UNK     0      -3.756   3.100   0.000  0.00  0.00     0.029 A 
HETATM   14  C   UNK     0      -5.089   2.331   0.000  0.00  0.00     0.044 A 
HETATM   15  C   UNK     0       1.578   0.021   0.000  0.00  0.00     0.051 A 
HETATM   16  C   UNK     0       2.912   0.791   0.000  0.00  0.00     0.063 A 
HETATM   17  C   UNK     0       2.911   2.331   0.000  0.00  0.00     0.036 A 
HETATM   18  C   UNK     0       1.578   3.101   0.000  0.00  0.00     0.128 A 
HETATM   19  N   UNK     0       4.376   0.316   0.000  0.00  0.00    -0.254 NA
HETATM   20  C   UNK     0       5.281   1.562   0.000  0.00  0.00     0.056 A 
HETATM   21  C   UNK     0       4.376   2.808   0.000  0.00  0.00    -0.005 A 
HETATM   22  C   UNK     0       6.813   1.723   0.000  0.00  0.00     0.059 A 
HETATM   23  C   UNK     0       7.439   3.130   0.000  0.00  0.00     0.084 A 
HETATM   24  C   UNK     0       6.534   4.376   0.000  0.00  0.00     0.019 A 
HETATM   25  C   UNK     0       5.002   4.215   0.000  0.00  0.00     0.029 A 
HETATM   26  C   UNK     0       8.955   3.290   0.000  0.00  0.00    -0.006 C 
HETATM   27  N   UNK     0      10.443   3.457   0.000  0.00  0.00    -0.101 N 
HETATM   28  O   UNK     0       1.577   4.620   0.000  0.00  0.00    -0.191 OA
HETATM   29  C   UNK     0       2.324  -1.342   0.000  0.00  0.00     0.010 A 
HETATM   30  C   UNK     0       0.764  -1.313   0.000  0.00  0.00     0.010 A 
ENDROOT
BRANCH   1  31
HETATM   31  N   UNK     0      -7.775  -2.310   0.000  0.00  0.00    -0.350 N 
HETATM   32  C   UNK     0      -7.775  -3.850   0.000  0.00  0.00     0.133 A 
HETATM   33  C   UNK     0      -9.109  -4.620   0.000  0.00  0.00     0.167 A 
HETATM   34  O   UNK     0     -10.443  -3.850   0.000  0.00  0.00    -0.350 OA
HETATM   35  C   UNK     0     -10.443  -2.310   0.000  0.00  0.00     0.167 A 
HETATM   36  C   UNK     0      -9.109  -1.540   0.000  0.00  0.00     0.133 A 
ENDBRANCH   1  31
TORSDOF 1
