REMARK  9 active torsions:
REMARK  status: ('A' for Active; 'I' for Inactive)
REMARK    1  A    between atoms: C_6  and  C_11 
REMARK    2  A    between atoms: C_11  and  C_13 
REMARK    3  A    between atoms: C_13  and  C_14 
REMARK    4  A    between atoms: C_14  and  C_16 
REMARK    5  A    between atoms: C_16  and  C_17 
REMARK    6  A    between atoms: C_17  and  C_18 
REMARK    7  A    between atoms: C_18  and  C_19 
REMARK    8  A    between atoms: C_19  and  C_21 
REMARK    9  A    between atoms: C_21  and  C_22 
ROOT
HETATM    1  C   UNK     0       8.456  -2.431   0.000  0.00  0.00     0.004 C 
ENDROOT
BRANCH   1   2
HETATM    2  C   UNK     0       9.789  -1.661   0.000  0.00  0.00     0.021 C 
BRANCH   2   3
HETATM    3  C   UNK     0      11.123  -2.431   0.000  0.00  0.00    -0.053 A 
HETATM    4  C   UNK     0      12.457  -1.661   0.000  0.00  0.00     0.015 A 
HETATM    5  C   UNK     0      13.790  -2.431   0.000  0.00  0.00     0.004 A 
HETATM    6  C   UNK     0      13.180  -0.301   0.000  0.00  0.00     0.004 A 
HETATM    7  C   UNK     0      11.734  -0.301   0.000  0.00  0.00     0.004 A 
HETATM    8  C   UNK     0      13.790  -3.971   0.000  0.00  0.00     0.005 A 
HETATM    9  C   UNK     0      12.457  -4.741   0.000  0.00  0.00     0.021 A 
HETATM   10  C   UNK     0      11.123  -3.971   0.000  0.00  0.00    -0.052 A 
HETATM   11  C   UNK     0       9.789  -4.741   0.000  0.00  0.00     0.026 C 
ENDBRANCH   2   3
ENDBRANCH   1   2
BRANCH   1  12
HETATM   12  C   UNK     0       7.122  -1.661   0.000  0.00  0.00     0.000 C 
HETATM   13  C   UNK     0       7.122  -0.121   0.000  0.00  0.00     0.000 C 
BRANCH  12  14
HETATM   14  C   UNK     0       5.788  -2.431   0.000  0.00  0.00     0.000 C 
BRANCH  14  15
HETATM   15  C   UNK     0       5.788  -3.971   0.000  0.00  0.00     0.000 C 
BRANCH  15  16
HETATM   16  C   UNK     0       4.455  -4.741   0.000  0.00  0.00     0.001 C 
BRANCH  16  17
HETATM   17  C   UNK     0       4.455  -6.281   0.000  0.00  0.00     0.011 C 
HETATM   18  C   UNK     0       5.788  -7.051   0.000  0.00  0.00     0.001 C 
BRANCH  17  19
HETATM   19  C   UNK     0       3.121  -7.051   0.000  0.00  0.00     0.098 C 
BRANCH  19  20
HETATM   20  C   UNK     0       3.121  -8.591   0.000  0.00  0.00     0.185 C 
HETATM   21  O   UNK     0       1.787  -9.361   0.000  0.00  0.00    -0.647 OA
HETATM   22  O   UNK     0       4.455  -9.361   0.000  0.00  0.00    -0.647 OA
ENDBRANCH  19  20
ENDBRANCH  17  19
ENDBRANCH  16  17
ENDBRANCH  15  16
ENDBRANCH  14  15
ENDBRANCH  12  14
ENDBRANCH   1  12
TORSDOF 9
