REMARK  5 active torsions:
REMARK  status: ('A' for Active; 'I' for Inactive)
REMARK    1  A    between atoms: C_3  and  C_18 
REMARK    2  A    between atoms: C_5  and  N_7 
REMARK       I    between atoms: N_7  and  C_8 
REMARK       I    between atoms: C_8  and  N_10 
REMARK    3  A    between atoms: C_14  and  C_15 
REMARK    4  A    between atoms: C_20  and  C_24 
REMARK    5  A    between atoms: C_24  and  C_27 
ROOT
HETATM    1  C   UNK     0       0.723   2.039   0.000  0.00  0.00     0.053 C 
HETATM    2  C   UNK     0       0.723   0.499   0.000  0.00  0.00     0.067 A 
HETATM    3  C   UNK     0       1.969  -0.406   0.000  0.00  0.00     0.038 A 
HETATM    4  S   UNK     0       1.493  -1.870   0.000  0.00  0.00    -0.048 SA
HETATM    5  C   UNK     0      -0.046  -1.870   0.000  0.00  0.00     0.197 A 
HETATM    6  N   UNK     0      -0.522  -0.406   0.000  0.00  0.00    -0.225 NA
ENDROOT
BRANCH   3   7
HETATM    7  C   UNK     0       3.434   0.070   0.000  0.00  0.00    -0.029 A 
HETATM    8  C   UNK     0       3.754   1.576   0.000  0.00  0.00     0.064 A 
HETATM    9  C   UNK     0       5.219   2.052   0.000  0.00  0.00     0.043 A 
HETATM   10  N   UNK     0       6.363   1.022   0.000  0.00  0.00    -0.278 NA
HETATM   11  C   UNK     0       6.043  -0.485   0.000  0.00  0.00     0.129 A 
HETATM   12  C   UNK     0       4.578  -0.960   0.000  0.00  0.00     0.049 A 
BRANCH   9  13
HETATM   13  C   UNK     0       5.539   3.558   0.000  0.00  0.00     0.119 C 
HETATM   14  C   UNK     0       7.045   3.238   0.000  0.00  0.00     0.014 C 
HETATM   15  C   UNK     0       4.032   3.879   0.000  0.00  0.00     0.014 C 
BRANCH  13  16
HETATM   16  C   UNK     0       5.859   5.065   0.000  0.00  0.00     0.402 C 
HETATM   17  F   UNK     0       6.179   6.571   0.000  0.00  0.00    -0.170 F 
HETATM   18  F   UNK     0       7.365   4.745   0.000  0.00  0.00    -0.170 F 
HETATM   19  F   UNK     0       4.353   5.385   0.000  0.00  0.00    -0.170 F 
ENDBRANCH  13  16
ENDBRANCH   9  13
ENDBRANCH   3   7
BRANCH   5  20
HETATM   20  N   UNK     0      -0.952  -3.116   0.000  0.00  0.00    -0.179 NA
HETATM   21  C   UNK     0      -2.483  -2.955   0.000  0.00  0.00     0.283 C 
HETATM   22  O   UNK     0      -3.110  -1.549   0.000  0.00  0.00    -0.149 OA
HETATM   23  N   UNK     0      -3.389  -4.201   0.000  0.00  0.00    -0.292 N 
HETATM   24  C   UNK     0      -2.913  -5.666   0.000  0.00  0.00     0.110 A 
HETATM   25  C   UNK     0      -4.929  -4.201   0.000  0.00  0.00     0.079 A 
HETATM   26  C   UNK     0      -4.159  -6.571   0.000  0.00  0.00     0.031 A 
HETATM   27  C   UNK     0      -5.404  -5.666   0.000  0.00  0.00     0.049 A 
BRANCH  25  28
HETATM   28  C   UNK     0      -5.834  -2.955   0.000  0.00  0.00     0.212 C 
HETATM   29  O   UNK     0      -7.365  -3.116   0.000  0.00  0.00    -0.174 OA
HETATM   30  N   UNK     0      -5.207  -1.549   0.000  0.00  0.00    -0.070 NA
ENDBRANCH  25  28
ENDBRANCH   5  20
TORSDOF 5
