REMARK  4 active torsions:
REMARK  status: ('A' for Active; 'I' for Inactive)
REMARK    1  A    between atoms: C_2  and  C_8 
REMARK    2  A    between atoms: C_5  and  C_6 
REMARK    3  A    between atoms: C_6  and  N_7 
REMARK    4  A    between atoms: C_17  and  C_18 
ROOT
HETATM    1  C   UNK     0      -2.667  -3.028   0.000  0.00  0.00     0.066 A 
HETATM    2  C   UNK     0      -4.001  -2.258   0.000  0.00  0.00    -0.008 C 
HETATM    3  N   UNK     0      -5.335  -1.488   0.000  0.00  0.00    -0.101 N 
HETATM    4  C   UNK     0      -3.437  -4.362   0.000  0.00  0.00     0.014 A 
HETATM    5  C   UNK     0      -1.898  -4.362   0.000  0.00  0.00     0.014 A 
ENDROOT
BRANCH   1   6
HETATM    6  C   UNK     0      -1.334  -2.258   0.000  0.00  0.00     0.012 A 
HETATM    7  C   UNK     0      -1.334  -0.718   0.000  0.00  0.00     0.003 A 
HETATM    8  C   UNK     0       0.000   0.052   0.000  0.00  0.00     0.024 A 
HETATM    9  C   UNK     0       1.334  -0.718   0.000  0.00  0.00     0.003 A 
HETATM   10  C   UNK     0       1.334  -2.258   0.000  0.00  0.00     0.012 A 
HETATM   11  C   UNK     0       0.000  -3.028   0.000  0.00  0.00     0.002 A 
BRANCH   8  12
HETATM   12  C   UNK     0       0.000   1.592   0.000  0.00  0.00     0.118 C 
BRANCH  12  13
HETATM   13  N   UNK     0       1.315   2.351   0.000  0.00  0.00    -0.264 N 
HETATM   14  N   UNK     0       2.778   1.870   0.000  0.00  0.00    -0.087 NA
HETATM   15  C   UNK     0       3.686   3.114   0.000  0.00  0.00     0.407 A 
HETATM   16  N   UNK     0       2.784   4.362   0.000  0.00  0.00     0.387 N 
HETATM   17  C   UNK     0       1.318   3.890   0.000  0.00  0.00     0.411 A 
ENDBRANCH  12  13
ENDBRANCH   8  12
BRANCH  10  18
HETATM   18  C   UNK     0       2.667  -2.997   0.000  0.00  0.00     0.066 A 
HETATM   19  C   UNK     0       4.001  -2.258   0.000  0.00  0.00    -0.008 C 
HETATM   20  N   UNK     0       5.335  -1.488   0.000  0.00  0.00    -0.101 N 
HETATM   21  C   UNK     0       3.437  -4.362   0.000  0.00  0.00     0.014 A 
HETATM   22  C   UNK     0       1.898  -4.362   0.000  0.00  0.00     0.014 A 
ENDBRANCH  10  18
ENDBRANCH   1   6
TORSDOF 4
