REMARK  4 active torsions:
REMARK  status: ('A' for Active; 'I' for Inactive)
REMARK       I    between atoms: N_2  and  C_3 
REMARK    1  A    between atoms: C_3  and  C_5 
REMARK    2  A    between atoms: C_8  and  N_12 
REMARK    3  A    between atoms: N_15  and  C_22 
REMARK    4  A    between atoms: C_24  and  C_30 
ROOT
HETATM    1  C   UNK     0       5.475  -0.905   0.000  0.00  0.00     0.052 A 
HETATM    2  C   UNK     0       6.882  -0.279   0.000  0.00  0.00     0.074 A 
HETATM    3  C   UNK     0       8.127  -1.184   0.000  0.00  0.00     0.081 A 
HETATM    4  C   UNK     0       7.966  -2.716   0.000  0.00  0.00     0.131 A 
HETATM    5  N   UNK     0       6.560  -3.342   0.000  0.00  0.00    -0.256 NA
HETATM    6  C   UNK     0       5.314  -2.437   0.000  0.00  0.00     0.166 A 
HETATM    7  C   UNK     0       9.212  -3.621   0.000  0.00  0.00     0.040 C 
HETATM    8  N   UNK     0      10.458  -4.526   0.000  0.00  0.00    -0.094 N 
ENDROOT
BRANCH   3   9
HETATM    9  C   UNK     0       9.534  -0.558   0.000  0.00  0.00     0.417 C 
HETATM   10  F   UNK     0      10.941   0.069   0.000  0.00  0.00    -0.166 F 
HETATM   11  F   UNK     0      10.161  -1.964   0.000  0.00  0.00    -0.166 F 
HETATM   12  F   UNK     0       8.908   0.849   0.000  0.00  0.00    -0.166 F 
ENDBRANCH   3   9
BRANCH   1  13
HETATM   13  N   UNK     0       4.229  -0.000   0.000  0.00  0.00    -0.271 N 
HETATM   14  C   UNK     0       4.229   1.540   0.000  0.00  0.00     0.188 A 
HETATM   15  N   UNK     0       2.764   2.016   0.000  0.00  0.00    -0.309 N 
HETATM   16  S   UNK     0       5.475   2.445   0.000  0.00  0.00    -0.040 SA
HETATM   17  C   UNK     0       1.859   0.770   0.000  0.00  0.00     0.128 A 
HETATM   18  C   UNK     0       2.764  -0.476   0.000  0.00  0.00     0.195 A 
HETATM   19  C   UNK     0       0.770  -0.319   0.000  0.00  0.00     0.029 A 
HETATM   20  C   UNK     0       0.770   1.859   0.000  0.00  0.00     0.029 A 
HETATM   21  O   UNK     0       2.288  -1.941   0.000  0.00  0.00    -0.173 OA
HETATM   22  C   UNK     0      -0.319   0.770   0.000  0.00  0.00     0.005 A 
BRANCH  15  23
HETATM   23  C   UNK     0       2.288   3.481   0.000  0.00  0.00     0.024 A 
HETATM   24  C   UNK     0       3.319   4.625   0.000  0.00  0.00     0.045 A 
HETATM   25  C   UNK     0       2.843   6.090   0.000  0.00  0.00     0.038 A 
HETATM   26  C   UNK     0       1.336   6.410   0.000  0.00  0.00     0.045 A 
HETATM   27  C   UNK     0       0.306   5.265   0.000  0.00  0.00     0.123 A 
HETATM   28  C   UNK     0       0.782   3.801   0.000  0.00  0.00     0.096 A 
HETATM   29  F   UNK     0      -1.200   5.586   0.000  0.00  0.00    -0.209 F 
BRANCH  26  30
HETATM   30  C   UNK     0       0.861   7.874   0.000  0.00  0.00     0.206 C 
HETATM   31  N   UNK     0      -0.646   8.195   0.000  0.00  0.00    -0.244 NA
HETATM   32  C   UNK     0      -1.122   9.659   0.000  0.00  0.00     0.154 C 
HETATM   33  O   UNK     0       1.891   9.019   0.000  0.00  0.00    -0.170 OA
ENDBRANCH  26  30
ENDBRANCH  15  23
ENDBRANCH   1  13
TORSDOF 4
