REMARK  6 active torsions:
REMARK  status: ('A' for Active; 'I' for Inactive)
REMARK    1  A    between atoms: C_1  and  S_10 
REMARK    2  A    between atoms: C_7  and  C_20 
REMARK    3  A    between atoms: S_10  and  C_11 
REMARK    4  A    between atoms: C_12  and  C_17 
REMARK       I    between atoms: C_17  and  N_18 
REMARK    5  A    between atoms: C_20  and  C_21 
REMARK    6  A    between atoms: C_21  and  C_22 
ROOT
HETATM    1  C   UNK     0      -1.642  -1.797   0.000  0.00  0.00     0.058 A 
HETATM    2  C   UNK     0      -1.642  -0.257   0.000  0.00  0.00     0.016 A 
HETATM    3  C   UNK     0      -0.308   0.513   0.000  0.00  0.00     0.030 A 
HETATM    4  C   UNK     0       1.025  -0.257   0.000  0.00  0.00     0.009 A 
HETATM    5  C   UNK     0       1.025  -1.797   0.000  0.00  0.00     0.079 A 
HETATM    6  C   UNK     0      -0.308  -2.567   0.000  0.00  0.00     0.059 A 
HETATM    7  C   UNK     0       2.490   0.219   0.000  0.00  0.00     0.078 A 
HETATM    8  N   UNK     0       3.396  -1.027   0.000  0.00  0.00    -0.153 NA
HETATM    9  N   UNK     0       2.490  -2.273   0.000  0.00  0.00    -0.153 NA
ENDROOT
BRANCH   1  10
HETATM   10  S   UNK     0      -2.975  -2.567   0.000  0.00  0.00    -0.119 SA
BRANCH  10  11
HETATM   11  C   UNK     0      -4.291  -1.808   0.000  0.00  0.00     0.003 A 
HETATM   12  C   UNK     0      -5.597  -2.562   0.000  0.00  0.00     0.023 A 
HETATM   13  C   UNK     0      -6.931  -1.792   0.000  0.00  0.00     0.030 A 
HETATM   14  C   UNK     0      -6.930  -0.252   0.000  0.00  0.00     0.005 A 
HETATM   15  C   UNK     0      -5.625   0.502   0.000  0.00  0.00     0.005 A 
HETATM   16  C   UNK     0      -4.291  -0.268   0.000  0.00  0.00     0.032 A 
BRANCH  12  17
HETATM   17  C   UNK     0      -5.597  -4.107   0.000  0.00  0.00     0.205 C 
HETATM   18  N   UNK     0      -6.910  -4.865   0.000  0.00  0.00    -0.244 NA
HETATM   19  C   UNK     0      -6.911  -6.398   0.000  0.00  0.00     0.154 C 
HETATM   20  O   UNK     0      -4.243  -4.889   0.000  0.00  0.00    -0.170 OA
ENDBRANCH  12  17
ENDBRANCH  10  11
ENDBRANCH   1  10
BRANCH   7  21
HETATM   21  C   UNK     0       2.966   1.683   0.000  0.00  0.00     0.053 C 
BRANCH  21  22
HETATM   22  C   UNK     0       4.472   2.004   0.000  0.00  0.00     0.047 C 
BRANCH  22  23
HETATM   23  C   UNK     0       4.948   3.468   0.000  0.00  0.00     0.032 A 
HETATM   24  N   UNK     0       6.455   3.789   0.000  0.00  0.00    -0.279 NA
HETATM   25  C   UNK     0       6.931   5.254   0.000  0.00  0.00     0.125 A 
HETATM   26  C   UNK     0       5.900   6.398   0.000  0.00  0.00     0.027 A 
HETATM   27  C   UNK     0       4.394   6.078   0.000  0.00  0.00     0.008 A 
HETATM   28  C   UNK     0       3.918   4.613   0.000  0.00  0.00     0.041 A 
ENDBRANCH  22  23
ENDBRANCH  21  22
ENDBRANCH   7  21
TORSDOF 6
