REMARK  3 active torsions:
REMARK  status: ('A' for Active; 'I' for Inactive)
REMARK    1  A    between atoms: C_15  and  C_17 
REMARK    2  A    between atoms: C_17  and  C_19 
REMARK    3  A    between atoms: C_25  and  C_26 
ROOT
HETATM    1  C   UNK     0       4.414   1.757   0.000  0.00  0.00     0.015 A 
HETATM    2  C   UNK     0       4.414   4.837   0.000  0.00  0.00     0.015 A 
HETATM    3  C   UNK     0       3.080   2.527   0.000  0.00  0.00     0.004 A 
HETATM    4  C   UNK     0       3.080   4.067   0.000  0.00  0.00     0.004 A 
HETATM    5  C   UNK     0       5.747   2.527   0.000  0.00  0.00    -0.048 A 
HETATM    6  C   UNK     0       5.747   4.067   0.000  0.00  0.00    -0.048 A 
HETATM    7  C   UNK     0       3.644   0.423   0.000  0.00  0.00     0.004 A 
HETATM    8  C   UNK     0       5.184   0.423   0.000  0.00  0.00     0.004 A 
HETATM    9  C   UNK     0       3.644   6.170   0.000  0.00  0.00     0.004 A 
HETATM   10  C   UNK     0       5.184   6.170   0.000  0.00  0.00     0.004 A 
HETATM   11  C   UNK     0       7.124   1.703   0.000  0.00  0.00     0.047 A 
HETATM   12  C   UNK     0       7.124   4.890   0.000  0.00  0.00     0.043 A 
HETATM   13  C   UNK     0       8.519   2.495   0.000  0.00  0.00    -0.030 A 
HETATM   14  C   UNK     0       8.519   4.099   0.000  0.00  0.00    -0.044 A 
HETATM   15  C   UNK     0       9.850   4.874   0.000  0.00  0.00     0.026 C 
ENDROOT
BRANCH  13  16
HETATM   16  C   UNK     0       9.850   1.720   0.000  0.00  0.00    -0.034 C 
HETATM   17  C   UNK     0      11.187   2.484   0.000  0.00  0.00     0.030 C 
BRANCH  16  18
HETATM   18  C   UNK     0       9.844   0.180   0.000  0.00  0.00    -0.048 A 
HETATM   19  C   UNK     0       8.508  -0.585   0.000  0.00  0.00     0.022 A 
HETATM   20  C   UNK     0       8.502  -2.125   0.000  0.00  0.00     0.015 A 
HETATM   21  C   UNK     0       9.832  -2.900   0.000  0.00  0.00     0.088 A 
HETATM   22  C   UNK     0      11.169  -2.136   0.000  0.00  0.00     0.015 A 
HETATM   23  C   UNK     0      11.175  -0.596   0.000  0.00  0.00     0.022 A 
BRANCH  21  24
HETATM   24  C   UNK     0       9.826  -4.440   0.000  0.00  0.00     0.185 C 
HETATM   25  O   UNK     0      11.157  -5.216   0.000  0.00  0.00    -0.647 OA
HETATM   26  O   UNK     0       8.490  -5.205   0.000  0.00  0.00    -0.647 OA
ENDBRANCH  21  24
ENDBRANCH  16  18
ENDBRANCH  13  16
TORSDOF 3
