REMARK  4 active torsions:
REMARK  status: ('A' for Active; 'I' for Inactive)
REMARK    1  A    between atoms: S_1  and  C_16 
REMARK       I    between atoms: N_10  and  C_15 
REMARK    2  A    between atoms: N_10  and  C_17 
REMARK    3  A    between atoms: C_12  and  C_15 
REMARK    4  A    between atoms: C_24  and  C_28 
ROOT
HETATM    1  N   UNK     0       3.080   3.005   0.000  0.00  0.00    -0.096 N 
HETATM    2  C   UNK     0       8.415  -0.075   0.000  0.00  0.00     0.043 A 
HETATM    3  C   UNK     0       8.415   1.465   0.000  0.00  0.00     0.072 A 
HETATM    4  C   UNK     0       7.081  -0.845   0.000  0.00  0.00     0.047 A 
HETATM    5  C   UNK     0       7.081   2.235   0.000  0.00  0.00     0.059 A 
HETATM    6  C   UNK     0       5.747   1.465   0.000  0.00  0.00     0.033 A 
HETATM    7  C   UNK     0       5.747  -0.075   0.000  0.00  0.00     0.041 A 
HETATM    8  C   UNK     0       4.414   2.235   0.000  0.00  0.00     0.017 C 
ENDROOT
BRANCH   5   9
HETATM    9  C   UNK     0       7.081   3.775   0.000  0.00  0.00     0.416 C 
HETATM   10  F   UNK     0       7.081   5.316   0.000  0.00  0.00    -0.166 F 
HETATM   11  F   UNK     0       8.621   3.775   0.000  0.00  0.00    -0.166 F 
HETATM   12  F   UNK     0       5.541   3.775   0.000  0.00  0.00    -0.166 F 
ENDBRANCH   5   9
BRANCH   2  13
HETATM   13  N   UNK     0       9.748  -0.845   0.000  0.00  0.00    -0.230 NA
HETATM   14  C   UNK     0       9.748  -2.385   0.000  0.00  0.00     0.220 C 
HETATM   15  O   UNK     0       8.415  -3.155   0.000  0.00  0.00    -0.171 OA
BRANCH  14  16
HETATM   16  C   UNK     0      11.082  -3.155   0.000  0.00  0.00     0.228 A 
HETATM   17  O   UNK     0      10.312  -4.488   0.000  0.00  0.00    -0.214 OA
HETATM   18  C   UNK     0      12.416  -3.925   0.000  0.00  0.00     0.148 A 
HETATM   19  S   UNK     0      13.750  -3.155   0.000  0.00  0.00     0.086 S 
HETATM   20  O   UNK     0      14.520  -4.488   0.000  0.00  0.00    -0.241 OA
HETATM   21  O   UNK     0      12.980  -1.821   0.000  0.00  0.00    -0.282 OA
HETATM   22  C   UNK     0      11.852  -1.821   0.000  0.00  0.00     0.199 A 
BRANCH  19  23
HETATM   23  C   UNK     0      15.083  -2.385   0.000  0.00  0.00     0.094 A 
HETATM   24  C   UNK     0      15.083  -0.845   0.000  0.00  0.00     0.021 A 
HETATM   25  C   UNK     0      16.417  -0.075   0.000  0.00  0.00     0.053 A 
HETATM   26  C   UNK     0      17.751  -0.845   0.000  0.00  0.00     0.095 A 
HETATM   27  F   UNK     0      19.085  -0.075   0.000  0.00  0.00    -0.214 F 
HETATM   28  C   UNK     0      17.751  -2.385   0.000  0.00  0.00     0.053 A 
HETATM   29  C   UNK     0      16.417  -3.155   0.000  0.00  0.00     0.021 A 
ENDBRANCH  19  23
ENDBRANCH  14  16
ENDBRANCH   2  13
TORSDOF 4
