REMARK  3 active torsions:
REMARK  status: ('A' for Active; 'I' for Inactive)
REMARK    1  A    between atoms: C_1  and  C_7 
REMARK       I    between atoms: C_7  and  N_8 
REMARK    2  A    between atoms: N_8  and  C_10 
REMARK    3  A    between atoms: N_20  and  C_21 
ROOT
HETATM    1  C   UNK     0      16.931 -32.452   0.000  0.00  0.00     0.107 A 
HETATM    2  C   UNK     0      18.265 -33.222   0.000  0.00  0.00     0.211 A 
HETATM    3  C   UNK     0      16.931 -30.912   0.000  0.00  0.00     0.073 A 
HETATM    4  C   UNK     0      18.265 -30.142   0.000  0.00  0.00    -0.026 A 
HETATM    5  C   UNK     0      18.265 -28.601   0.000  0.00  0.00     0.024 A 
HETATM    6  C   UNK     0      19.599 -30.912   0.000  0.00  0.00     0.034 A 
HETATM    7  C   UNK     0      19.599 -27.831   0.000  0.00  0.00     0.005 A 
HETATM    8  C   UNK     0      20.932 -30.142   0.000  0.00  0.00     0.043 A 
HETATM    9  C   UNK     0      20.932 -28.601   0.000  0.00  0.00     0.007 A 
HETATM   10  O   UNK     0      18.265 -34.762   0.000  0.00  0.00    -0.169 OA
HETATM   11  N   UNK     0      19.599 -32.452   0.000  0.00  0.00    -0.303 N 
ENDROOT
BRANCH   1  12
HETATM   12  N   UNK     0      15.597 -33.222   0.000  0.00  0.00    -0.219 NA
HETATM   13  C   UNK     0      14.264 -32.452   0.000  0.00  0.00     0.228 C 
HETATM   14  O   UNK     0      14.264 -30.912   0.000  0.00  0.00    -0.168 OA
BRANCH  13  15
HETATM   15  C   UNK     0      12.930 -33.222   0.000  0.00  0.00     0.121 A 
HETATM   16  N   UNK     0      12.930 -34.762   0.000  0.00  0.00    -0.267 NA
HETATM   17  C   UNK     0      11.596 -35.532   0.000  0.00  0.00     0.151 A 
HETATM   18  C   UNK     0      10.263 -34.762   0.000  0.00  0.00     0.146 A 
HETATM   19  N   UNK     0      10.263 -33.222   0.000  0.00  0.00    -0.287 NA
HETATM   20  C   UNK     0      11.596 -32.452   0.000  0.00  0.00     0.169 A 
ENDBRANCH  13  15
ENDBRANCH   1  12
BRANCH  11  21
HETATM   21  C   UNK     0      20.932 -33.222   0.000  0.00  0.00     0.037 A 
HETATM   22  C   UNK     0      22.266 -32.452   0.000  0.00  0.00     0.035 A 
HETATM   23  C   UNK     0      23.600 -33.222   0.000  0.00  0.00     0.033 A 
HETATM   24  C   UNK     0      24.933 -32.452   0.000  0.00  0.00     0.003 C 
HETATM   25  C   UNK     0      23.600 -34.762   0.000  0.00  0.00     0.122 A 
HETATM   26  O   UNK     0      22.266 -35.532   0.000  0.00  0.00    -0.404 OA
HETATM   27  B   UNK     0      20.932 -34.762   0.000  0.00  0.00     0.576 B 
HETATM   28  O   UNK     0      19.599 -35.532   0.000  0.00  0.00    -0.281 OA
ENDBRANCH  11  21
TORSDOF 3
