REMARK  4 active torsions:
REMARK  status: ('A' for Active; 'I' for Inactive)
REMARK    1  A    between atoms: C_13  and  C_21 
REMARK    2  A    between atoms: C_18  and  O_32 
REMARK    3  A    between atoms: C_21  and  C_22 
REMARK    4  A    between atoms: C_22  and  N_23 
ROOT
HETATM    1  C   UNK     0      10.949 -23.836   0.000  0.00  0.00     0.162 A 
HETATM    2  C   UNK     0      10.949 -25.376   0.000  0.00  0.00     0.074 A 
HETATM    3  C   UNK     0      12.283 -26.146   0.000  0.00  0.00     0.089 A 
HETATM    4  C   UNK     0      13.616 -25.376   0.000  0.00  0.00     0.034 A 
HETATM    5  C   UNK     0      13.616 -23.836   0.000  0.00  0.00     0.062 A 
HETATM    6  N   UNK     0      12.283 -23.066   0.000  0.00  0.00    -0.269 NA
HETATM    7  C   UNK     0      14.950 -26.146   0.000  0.00  0.00     0.030 A 
HETATM    8  C   UNK     0      16.284 -25.376   0.000  0.00  0.00     0.113 A 
HETATM    9  C   UNK     0      16.284 -23.836   0.000  0.00  0.00     0.100 A 
HETATM   10  C   UNK     0      14.950 -23.066   0.000  0.00  0.00     0.098 A 
HETATM   11  N   UNK     0      12.283 -27.686   0.000  0.00  0.00    -0.245 NA
HETATM   12  O   UNK     0      17.620 -23.066   0.000  0.00  0.00    -0.333 OA
HETATM   13  C   UNK     0      18.956 -23.837   0.000  0.00  0.00     0.153 A 
HETATM   14  C   UNK     0      13.617 -28.456   0.000  0.00  0.00     0.090 A 
HETATM   15  C   UNK     0      13.617 -29.996   0.000  0.00  0.00     0.059 A 
HETATM   16  C   UNK     0      14.951 -30.766   0.000  0.00  0.00     0.079 A 
HETATM   17  C   UNK     0      16.284 -29.996   0.000  0.00  0.00     0.063 A 
HETATM   18  C   UNK     0      16.284 -28.456   0.000  0.00  0.00     0.102 A 
HETATM   19  C   UNK     0      14.951 -27.686   0.000  0.00  0.00     0.043 A 
HETATM   20 Cl   UNK     0      17.621 -30.767   0.000  0.00  0.00    -0.085 Cl
HETATM   21  O   UNK     0      17.606 -26.178   0.000  0.00  0.00    -0.327 OA
HETATM   22  C   UNK     0      18.948 -25.404   0.000  0.00  0.00     0.179 A 
HETATM   23 Cl   UNK     0      12.296 -30.758   0.000  0.00  0.00    -0.085 Cl
HETATM   24  C   UNK     0       9.574 -26.169   0.000  0.00  0.00     0.021 C 
HETATM   25  N   UNK     0       8.232 -26.944   0.000  0.00  0.00    -0.096 N 
ENDROOT
BRANCH  18  26
HETATM   26  O   UNK     0      17.624 -27.682   0.000  0.00  0.00    -0.328 OA
HETATM   27  C   UNK     0      18.977 -28.464   0.000  0.00  0.00     0.181 C 
ENDBRANCH  18  26
BRANCH  13  28
HETATM   28  C   UNK     0      20.268 -23.081   0.000  0.00  0.00     0.057 C 
BRANCH  28  29
HETATM   29  C   UNK     0      21.602 -23.852   0.000  0.00  0.00     0.100 C 
BRANCH  29  30
HETATM   30  N   UNK     0      22.901 -23.103   0.000  0.00  0.00    -0.365 N 
HETATM   31  C   UNK     0      24.216 -23.863   0.000  0.00  0.00     0.121 A 
HETATM   32  C   UNK     0      25.551 -23.093   0.000  0.00  0.00     0.121 A 
HETATM   33  N   UNK     0      25.551 -21.552   0.000  0.00  0.00    -0.364 N 
HETATM   34  C   UNK     0      24.236 -20.791   0.000  0.00  0.00     0.121 A 
HETATM   35  C   UNK     0      26.908 -20.770   0.000  0.00  0.00     0.121 C 
HETATM   36  C   UNK     0      22.901 -21.561   0.000  0.00  0.00     0.121 A 
ENDBRANCH  29  30
ENDBRANCH  28  29
ENDBRANCH  13  28
TORSDOF 4
