REMARK  8 active torsions:
REMARK  status: ('A' for Active; 'I' for Inactive)
REMARK    1  A    between atoms: C_5  and  O_26 
REMARK    2  A    between atoms: C_8  and  O_39 
REMARK    3  A    between atoms: C_23  and  C_24 
REMARK    4  A    between atoms: O_39  and  C_48 
REMARK    5  A    between atoms: C_46  and  C_47 
REMARK    6  A    between atoms: C_46  and  C_48 
REMARK    7  A    between atoms: C_52  and  O_53 
REMARK    8  A    between atoms: O_53  and  C_54 
ROOT
HETATM    1  C   UNK     0       3.949  -0.696   0.000  0.00  0.00     0.126 A 
HETATM    2  C   UNK     0       7.073   0.032   0.000  0.00  0.00     0.021 A 
HETATM    3  C   UNK     0       8.253   2.097   0.000  0.00  0.00    -0.031 A 
HETATM    4  C   UNK     0       4.696   3.832   0.000  0.00  0.00     0.165 A 
HETATM    5  C   UNK     0       2.770   3.832   0.000  0.00  0.00     0.095 A 
HETATM    6  C   UNK     0       1.694   2.722   0.000  0.00  0.00     0.002 A 
HETATM    7  C   UNK     0       0.323   2.722   0.000  0.00  0.00     0.020 A 
HETATM    8  C   UNK     0      -0.371   1.524   0.000  0.00  0.00     0.100 A 
HETATM    9  C   UNK     0       0.323   0.327   0.000  0.00  0.00     0.031 A 
HETATM   10  C   UNK     0      -0.371   3.902   0.000  0.00  0.00     0.002 C 
HETATM   11  C   UNK     0       8.304  -0.871   0.000  0.00  0.00     0.037 A 
HETATM   12  O   UNK     0       7.063  -1.388   0.000  0.00  0.00     0.000 OA
HETATM   13  C   UNK     0       8.240  -2.097   0.000  0.00  0.00     0.153 A 
HETATM   14  C   UNK     0       9.612  -1.343   0.000  0.00  0.00     0.036 A 
HETATM   15  O   UNK     0       8.240  -3.424   0.000  0.00  0.00    -0.223 OA
HETATM   16  O   UNK     0       5.087   5.203   0.000  0.00  0.00    -0.220 OA
HETATM   17  O   UNK     0       3.866  -2.338   0.000  0.00  0.00    -0.312 OA
HETATM   18  C   UNK     0       2.532  -3.108   0.000  0.00  0.00     0.220 A 
HETATM   19  O   UNK     0       1.198  -2.338   0.000  0.00  0.00    -0.170 OA
HETATM   20  C   UNK     0       5.876   0.709   0.000  0.00  0.00     0.054 A 
HETATM   21  C   UNK     0       5.876   2.097   0.000  0.00  0.00     0.036 A 
HETATM   22  C   UNK     0       5.876   3.637   0.000  0.00  0.00     0.041 A 
HETATM   23  C   UNK     0       1.694   0.327   0.000  0.00  0.00     0.173 A 
HETATM   24  O   UNK     0       1.694  -1.213   0.000  0.00  0.00    -0.212 OA
HETATM   25  C   UNK     0       3.704   2.294   0.000  0.00  0.00     0.010 A 
HETATM   26  C   UNK     0       3.704   0.754   0.000  0.00  0.00     0.035 A 
HETATM   27  C   UNK     0       7.073   2.774   0.000  0.00  0.00     0.027 A 
HETATM   28  O   UNK     0       7.073   4.314   0.000  0.00  0.00     0.000 OA
HETATM   29  C   UNK     0       8.253   0.709   0.000  0.00  0.00    -0.031 A 
HETATM   30  O   UNK     0       9.586  -0.061   0.000  0.00  0.00     0.000 OA
HETATM   31  C   UNK     0       2.371   1.524   0.000  0.00  0.00     0.055 A 
HETATM   32  C   UNK     0       8.406   5.084   0.000  0.00  0.00     0.000 C 
ENDROOT
BRANCH   8  33
HETATM   33  O   UNK     0      -1.579   0.829   0.000  0.00  0.00    -0.282 OA
BRANCH  33  34
HETATM   34  C   UNK     0      -2.913   1.599   0.000  0.00  0.00     0.260 C 
HETATM   35  O   UNK     0      -2.913   3.139   0.000  0.00  0.00    -0.161 OA
BRANCH  34  36
HETATM   36  C   UNK     0      -4.247   0.829   0.000  0.00  0.00     0.197 C 
HETATM   37  O   UNK     0      -4.247  -0.711   0.000  0.00  0.00    -0.184 OA
BRANCH  36  38
HETATM   38  C   UNK     0      -5.580   1.568   0.000  0.00  0.00     0.113 A 
HETATM   39  C   UNK     0      -6.914   0.798   0.000  0.00  0.00     0.017 A 
HETATM   40  C   UNK     0      -8.278   1.568   0.000  0.00  0.00     0.079 A 
HETATM   41  C   UNK     0      -6.914  -0.742   0.000  0.00  0.00     0.030 A 
HETATM   42  C   UNK     0      -9.612   0.798   0.000  0.00  0.00     0.051 A 
HETATM   43  O   UNK     0      -8.248   3.108   0.000  0.00  0.00    -0.275 OA
HETATM   44  C   UNK     0      -9.612  -0.742   0.000  0.00  0.00     0.007 A 
HETATM   45  C   UNK     0      -8.278  -1.512   0.000  0.00  0.00     0.005 A 
HETATM   46  C   UNK     0      -6.914   3.878   0.000  0.00  0.00     0.293 A 
HETATM   47  N   UNK     0      -5.580   3.108   0.000  0.00  0.00    -0.198 NA
BRANCH  46  48
HETATM   48  O   UNK     0      -6.914   5.418   0.000  0.00  0.00    -0.301 OA
BRANCH  48  49
HETATM   49  C   UNK     0      -8.248   6.188   0.000  0.00  0.00     0.102 A 
HETATM   50  C   UNK     0      -8.248   7.728   0.000  0.00  0.00     0.030 A 
HETATM   51  C   UNK     0      -9.581   6.958   0.000  0.00  0.00     0.030 A 
HETATM   52  C   UNK     0      -9.581   5.418   0.000  0.00  0.00     0.030 A 
ENDBRANCH  48  49
ENDBRANCH  46  48
ENDBRANCH  36  38
ENDBRANCH  34  36
ENDBRANCH  33  34
ENDBRANCH   8  33
BRANCH   5  53
HETATM   53  O   UNK     0       2.025   5.444   0.000  0.00  0.00    -0.330 OA
HETATM   54  C   UNK     0       2.913   6.703   0.000  0.00  0.00     0.181 C 
ENDBRANCH   5  53
BRANCH  18  55
HETATM   55  C   UNK     0       2.532  -4.648   0.000  0.00  0.00     0.005 A 
HETATM   56  C   UNK     0       1.198  -5.418   0.000  0.00  0.00     0.026 A 
HETATM   57  C   UNK     0       1.198  -6.958   0.000  0.00  0.00     0.004 A 
HETATM   58  C   UNK     0       2.532  -7.728   0.000  0.00  0.00     0.001 A 
HETATM   59  C   UNK     0       3.866  -6.958   0.000  0.00  0.00     0.004 A 
HETATM   60  C   UNK     0       3.866  -5.418   0.000  0.00  0.00     0.026 A 
ENDBRANCH  18  55
TORSDOF 8
