REMARK  4 active torsions:
REMARK  status: ('A' for Active; 'I' for Inactive)
REMARK    1  A    between atoms: C_1  and  C_10 
REMARK    2  A    between atoms: C_9  and  C_11 
REMARK    3  A    between atoms: C_11  and  C_12 
REMARK    4  A    between atoms: C_24  and  C_27 
REMARK       I    between atoms: C_27  and  N_28 
ROOT
HETATM    1  C   UNK     0      -1.915  -1.156   0.000  0.00  0.00     0.096 A 
HETATM    2  N   UNK     0      -0.580  -0.386   0.000  0.00  0.00    -0.166 NA
HETATM    3  N   UNK     0       0.748  -1.155   0.000  0.00  0.00    -0.204 N 
HETATM    4  C   UNK     0       0.748  -2.696   0.000  0.00  0.00     0.244 A 
HETATM    5  N   UNK     0      -0.577  -3.464   0.000  0.00  0.00    -0.230 NA
HETATM    6  C   UNK     0      -1.915  -2.702   0.000  0.00  0.00     0.175 A 
HETATM    7  N   UNK     0       2.200  -3.171   0.000  0.00  0.00    -0.231 NA
HETATM    8  C   UNK     0       3.108  -1.933   0.000  0.00  0.00     0.170 A 
HETATM    9  C   UNK     0       2.218  -0.692   0.000  0.00  0.00     0.066 A 
ENDROOT
BRANCH   1  10
HETATM   10  C   UNK     0      -3.248  -0.386   0.000  0.00  0.00    -0.020 A 
HETATM   11  C   UNK     0      -4.582  -1.155   0.000  0.00  0.00     0.080 A 
HETATM   12  C   UNK     0      -5.911  -0.386   0.000  0.00  0.00     0.121 A 
HETATM   13  C   UNK     0      -5.911   1.154   0.000  0.00  0.00     0.045 A 
HETATM   14  F   UNK     0      -7.245  -1.156   0.000  0.00  0.00    -0.209 F 
HETATM   15  C   UNK     0      -4.586   1.923   0.000  0.00  0.00     0.036 A 
HETATM   16  C   UNK     0      -3.248   1.161   0.000  0.00  0.00     0.029 A 
BRANCH  13  17
HETATM   17  C   UNK     0      -7.245   1.924   0.000  0.00  0.00     0.206 C 
HETATM   18  N   UNK     0      -8.579   1.154   0.000  0.00  0.00    -0.244 NA
HETATM   19  C   UNK     0      -9.913   1.924   0.000  0.00  0.00     0.154 C 
HETATM   20  O   UNK     0      -7.245   3.464   0.000  0.00  0.00    -0.170 OA
ENDBRANCH  13  17
ENDBRANCH   1  10
BRANCH   9  21
HETATM   21  C   UNK     0       2.988   0.642   0.000  0.00  0.00     0.044 C 
BRANCH  21  22
HETATM   22  C   UNK     0       4.528   0.642   0.000  0.00  0.00     0.010 A 
HETATM   23  C   UNK     0       5.298   1.975   0.000  0.00  0.00     0.024 A 
HETATM   24  C   UNK     0       6.834   1.974   0.000  0.00  0.00    -0.031 A 
HETATM   25  C   UNK     0       7.604   0.640   0.000  0.00  0.00     0.046 A 
HETATM   26  C   UNK     0       7.602   3.303   0.000  0.00  0.00     0.025 A 
HETATM   27  C   UNK     0       6.840  -0.689   0.000  0.00  0.00     0.045 A 
HETATM   28  N   UNK     0       9.151   0.640   0.000  0.00  0.00    -0.276 NA
HETATM   29  C   UNK     0       5.301  -0.698   0.000  0.00  0.00     0.007 A 
HETATM   30  C   UNK     0       9.913   1.978   0.000  0.00  0.00     0.126 A 
HETATM   31  C   UNK     0       9.143   3.304   0.000  0.00  0.00     0.031 A 
ENDBRANCH  21  22
ENDBRANCH   9  21
TORSDOF 4
