REMARK  5 active torsions:
REMARK  status: ('A' for Active; 'I' for Inactive)
REMARK    1  A    between atoms: N_5  and  N_7 
REMARK    2  A    between atoms: N_5  and  C_8 
REMARK       I    between atoms: N_5  and  C_10 
REMARK    3  A    between atoms: N_6  and  C_9 
REMARK       I    between atoms: N_6  and  C_10 
REMARK    4  A    between atoms: C_8  and  C_11 
REMARK    5  A    between atoms: C_9  and  C_12 
ROOT
HETATM    1  O   UNK     0       8.415  -2.310   0.000  0.00  0.00    -0.148 OA
HETATM    2  N   UNK     0       9.748   0.000   0.000  0.00  0.00    -0.187 N 
HETATM    3  N   UNK     0       7.081   0.000   0.000  0.00  0.00    -0.229 NA
HETATM    4  C   UNK     0       8.415  -0.770   0.000  0.00  0.00     0.295 C 
ENDROOT
BRANCH   2   5
HETATM    5  N   UNK     0       9.748   1.540   0.000  0.00  0.00    -0.008 NA
HETATM    6  O   UNK     0      11.082   2.310   0.000  0.00  0.00    -0.041 OA
ENDBRANCH   2   5
BRANCH   2   7
HETATM    7  C   UNK     0      11.082  -0.770   0.000  0.00  0.00     0.151 C 
BRANCH   7   8
HETATM    8  C   UNK     0      12.416   0.000   0.000  0.00  0.00     0.121 C 
HETATM    9 Cl   UNK     0      13.750  -0.770   0.000  0.00  0.00    -0.112 Cl
ENDBRANCH   7   8
ENDBRANCH   2   7
BRANCH   3  10
HETATM   10  C   UNK     0       5.748  -0.770   0.000  0.00  0.00     0.147 C 
BRANCH  10  11
HETATM   11  C   UNK     0       4.414   0.000   0.000  0.00  0.00     0.121 C 
HETATM   12 Cl   UNK     0       3.080  -0.770   0.000  0.00  0.00    -0.112 Cl
ENDBRANCH  10  11
ENDBRANCH   3  10
TORSDOF 5
