REMARK  9 active torsions:
REMARK  status: ('A' for Active; 'I' for Inactive)
REMARK    1  A    between atoms: N_5  and  C_6 
REMARK    2  A    between atoms: N_5  and  C_10 
REMARK    3  A    between atoms: N_5  and  C_11 
REMARK    4  A    between atoms: C_7  and  C_8 
REMARK    5  A    between atoms: C_7  and  C_9 
REMARK    6  A    between atoms: C_9  and  C_16 
REMARK    7  A    between atoms: C_10  and  C_17 
REMARK    8  A    between atoms: C_11  and  C_18 
REMARK    9  A    between atoms: C_16  and  C_19 
ROOT
HETATM    1  C   UNK     0       7.081   2.549   0.000  0.00  0.00     0.010 A 
HETATM    2  C   UNK     0       7.081  -0.531   0.000  0.00  0.00     0.001 A 
HETATM    3  C   UNK     0       5.748   1.779   0.000  0.00  0.00     0.039 A 
HETATM    4  C   UNK     0       8.415   1.779   0.000  0.00  0.00     0.039 A 
HETATM    5  C   UNK     0       5.748   0.239   0.000  0.00  0.00     0.006 A 
HETATM    6  C   UNK     0       8.415   0.239   0.000  0.00  0.00     0.006 A 
ENDROOT
BRANCH   1   7
HETATM    7  N   UNK     0       7.081   4.089   0.000  0.00  0.00    -0.352 N 
BRANCH   7   8
HETATM    8  C   UNK     0       5.748   4.859   0.000  0.00  0.00     0.118 C 
BRANCH   8   9
HETATM    9  C   UNK     0       5.748   6.399   0.000  0.00  0.00     0.119 C 
HETATM   10 Cl   UNK     0       4.414   7.169   0.000  0.00  0.00    -0.112 Cl
ENDBRANCH   8   9
ENDBRANCH   7   8
BRANCH   7  11
HETATM   11  C   UNK     0       8.415   4.859   0.000  0.00  0.00     0.118 C 
BRANCH  11  12
HETATM   12  C   UNK     0       8.415   6.399   0.000  0.00  0.00     0.119 C 
HETATM   13 Cl   UNK     0       9.748   7.169   0.000  0.00  0.00    -0.112 Cl
ENDBRANCH  11  12
ENDBRANCH   7  11
ENDBRANCH   1   7
BRANCH   2  14
HETATM   14  C   UNK     0       7.081  -2.071   0.000  0.00  0.00     0.001 C 
BRANCH  14  15
HETATM   15  C   UNK     0       5.748  -2.841   0.000  0.00  0.00     0.011 C 
BRANCH  15  16
HETATM   16  C   UNK     0       5.748  -4.381   0.000  0.00  0.00     0.098 C 
BRANCH  16  17
HETATM   17  C   UNK     0       4.414  -5.151   0.000  0.00  0.00     0.185 C 
HETATM   18  O   UNK     0       4.414  -6.691   0.000  0.00  0.00    -0.647 OA
HETATM   19  O   UNK     0       3.080  -4.381   0.000  0.00  0.00    -0.647 OA
ENDBRANCH  16  17
ENDBRANCH  15  16
ENDBRANCH  14  15
ENDBRANCH   2  14
TORSDOF 9
