REMARK  8 active torsions:
REMARK  status: ('A' for Active; 'I' for Inactive)
REMARK    1  A    between atoms: C_1  and  C_8 
REMARK       I    between atoms: C_8  and  N_10 
REMARK    2  A    between atoms: N_10  and  C_11 
REMARK    3  A    between atoms: C_22  and  O_26 
REMARK    4  A    between atoms: C_23  and  O_24 
REMARK    5  A    between atoms: O_26  and  C_27 
REMARK    6  A    between atoms: C_27  and  C_28 
REMARK    7  A    between atoms: C_28  and  C_29 
REMARK    8  A    between atoms: C_29  and  N_30 
ROOT
HETATM    1  C   UNK     0       3.322  -0.289   0.000  0.00  0.00     0.734 A 
HETATM    2  N   UNK     0       1.994  -1.063   0.000  0.00  0.00    -0.059 NA
HETATM    3  N   UNK     0       2.335   3.524   0.000  0.00  0.00    -0.252 NA
HETATM    4  C   UNK     0       2.001   2.022   0.000  0.00  0.00     0.152 A 
HETATM    5  N   UNK     0       3.328   1.241   0.000  0.00  0.00    -0.144 N 
HETATM    6  C   UNK     0       4.479   2.264   0.000  0.00  0.00     0.152 A 
HETATM    7  C   UNK     0       3.860   3.674   0.000  0.00  0.00     0.152 A 
HETATM    8  C   UNK     0       0.658  -0.285   0.000  0.00  0.00     0.122 A 
HETATM    9  C   UNK     0       0.669   1.252   0.000  0.00  0.00     0.033 A 
HETATM   10  C   UNK     0      -0.655   2.027   0.000  0.00  0.00     0.038 A 
HETATM   11  C   UNK     0      -1.990   1.266   0.000  0.00  0.00     0.058 A 
HETATM   12  C   UNK     0      -1.993  -0.277   0.000  0.00  0.00     0.096 A 
HETATM   13  C   UNK     0      -0.668  -1.044   0.000  0.00  0.00     0.130 A 
ENDROOT
BRANCH   1  14
HETATM   14  N   UNK     0       4.657  -1.060   0.000  0.00  0.00    -0.035 NA
HETATM   15  C   UNK     0       5.991  -0.289   0.000  0.00  0.00     0.226 C 
HETATM   16  O   UNK     0       5.991   1.252   0.000  0.00  0.00    -0.169 OA
BRANCH  15  17
HETATM   17  C   UNK     0       7.326  -1.059   0.000  0.00  0.00     0.049 A 
HETATM   18  C   UNK     0       8.656  -0.288   0.000  0.00  0.00     0.156 A 
HETATM   19  N   UNK     0       9.992  -1.052   0.000  0.00  0.00    -0.236 NA
HETATM   20  C   UNK     0       9.997  -2.603   0.000  0.00  0.00     0.229 A 
HETATM   21  N   UNK     0       8.659  -3.375   0.000  0.00  0.00    -0.236 NA
HETATM   22  N   UNK     0      11.333  -3.372   0.000  0.00  0.00    -0.060 NA
HETATM   23  C   UNK     0       7.324  -2.604   0.000  0.00  0.00     0.156 A 
ENDBRANCH  15  17
ENDBRANCH   1  14
BRANCH  13  24
HETATM   24  O   UNK     0      -0.672  -2.585   0.000  0.00  0.00    -0.325 OA
HETATM   25  C   UNK     0      -1.777  -3.674   0.000  0.00  0.00     0.181 C 
ENDBRANCH  13  24
BRANCH  12  26
HETATM   26  O   UNK     0      -3.329  -1.045   0.000  0.00  0.00    -0.333 OA
BRANCH  26  27
HETATM   27  C   UNK     0      -4.662  -0.272   0.000  0.00  0.00     0.150 C 
BRANCH  27  28
HETATM   28  C   UNK     0      -5.998  -1.040   0.000  0.00  0.00     0.056 C 
BRANCH  28  29
HETATM   29  C   UNK     0      -7.331  -0.267   0.000  0.00  0.00     0.100 C 
BRANCH  29  30
HETATM   30  N   UNK     0      -8.667  -1.035   0.000  0.00  0.00    -0.364 N 
HETATM   31  C   UNK     0      -9.990  -0.258   0.000  0.00  0.00     0.130 A 
HETATM   32  C   UNK     0     -11.322  -1.019   0.000  0.00  0.00     0.166 A 
HETATM   33  O   UNK     0     -11.333  -2.561   0.000  0.00  0.00    -0.350 OA
HETATM   34  C   UNK     0     -10.000  -3.338   0.000  0.00  0.00     0.166 A 
HETATM   35  C   UNK     0      -8.657  -2.573   0.000  0.00  0.00     0.130 A 
ENDBRANCH  29  30
ENDBRANCH  28  29
ENDBRANCH  27  28
ENDBRANCH  26  27
ENDBRANCH  12  26
TORSDOF 8
