REMARK  3 active torsions:
REMARK  status: ('A' for Active; 'I' for Inactive)
REMARK    1  A    between atoms: C_7  and  C_10 
REMARK    2  A    between atoms: C_19  and  C_20 
REMARK    3  A    between atoms: N_23  and  C_25 
ROOT
HETATM    1  C   UNK     0       0.680   4.505   0.000  0.00  0.00     0.201 A 
HETATM    2  C   UNK     0      -0.654   5.275   0.000  0.00  0.00     0.152 A 
HETATM    3  O   UNK     0       0.680   2.965   0.000  0.00  0.00    -0.337 OA
HETATM    4  C   UNK     0      -0.654   2.195   0.000  0.00  0.00     0.110 A 
HETATM    5  C   UNK     0      -0.654   0.655   0.000  0.00  0.00     0.077 A 
HETATM    6  C   UNK     0      -1.988   2.965   0.000  0.00  0.00     0.173 A 
HETATM    7  N   UNK     0      -1.988   4.505   0.000  0.00  0.00    -0.249 NA
HETATM    8  N   UNK     0      -3.321   2.195   0.000  0.00  0.00    -0.247 NA
HETATM    9  C   UNK     0      -3.321   0.655   0.000  0.00  0.00     0.149 A 
HETATM   10  C   UNK     0      -1.988  -0.115   0.000  0.00  0.00    -0.018 A 
ENDROOT
BRANCH  10  11
HETATM   11  C   UNK     0      -1.988  -1.655   0.000  0.00  0.00    -0.007 A 
HETATM   12  C   UNK     0      -0.742  -2.561   0.000  0.00  0.00     0.138 A 
HETATM   13  N   UNK     0      -1.218  -4.025   0.000  0.00  0.00    -0.117 NA
HETATM   14  N   UNK     0      -2.758  -4.025   0.000  0.00  0.00    -0.280 N 
HETATM   15  C   UNK     0      -3.234  -2.561   0.000  0.00  0.00     0.144 A 
BRANCH  14  16
HETATM   16  C   UNK     0      -3.663  -5.271   0.000  0.00  0.00     0.032 A 
HETATM   17  C   UNK     0      -3.037  -6.678   0.000  0.00  0.00     0.066 A 
HETATM   18  C   UNK     0      -3.942  -7.924   0.000  0.00  0.00     0.126 A 
HETATM   19  N   UNK     0      -5.473  -7.763   0.000  0.00  0.00    -0.295 NA
HETATM   20  C   UNK     0      -6.100  -6.356   0.000  0.00  0.00     0.126 A 
HETATM   21  C   UNK     0      -5.195  -5.110   0.000  0.00  0.00     0.066 A 
ENDBRANCH  14  16
ENDBRANCH  10  11
BRANCH   1  22
HETATM   22  C   UNK     0       2.013   5.275   0.000  0.00  0.00     0.017 A 
HETATM   23  C   UNK     0       2.013   6.815   0.000  0.00  0.00     0.035 A 
HETATM   24 Cl   UNK     0       0.680   7.585   0.000  0.00  0.00    -0.087 Cl
HETATM   25  C   UNK     0       3.347   7.585   0.000  0.00  0.00     0.045 A 
HETATM   26  C   UNK     0       4.681   6.815   0.000  0.00  0.00     0.063 A 
HETATM   27  C   UNK     0       4.681   5.275   0.000  0.00  0.00     0.128 A 
HETATM   28  F   UNK     0       6.014   4.505   0.000  0.00  0.00    -0.208 F 
HETATM   29  C   UNK     0       3.347   4.505   0.000  0.00  0.00     0.079 A 
HETATM   30 Cl   UNK     0       3.347   2.965   0.000  0.00  0.00    -0.081 Cl
ENDBRANCH   1  22
TORSDOF 3
