REMARK  2 active torsions:
REMARK  status: ('A' for Active; 'I' for Inactive)
REMARK    1  A    between atoms: N_6  and  C_11 
REMARK    2  A    between atoms: C_12  and  C_13 
ROOT
HETATM    1  O   UNK     0       7.746  -1.980   0.000  0.00  0.00    -0.288 OA
HETATM    2  O   UNK     0       3.790  -1.504   0.000  0.00  0.00    -0.184 OA
HETATM    3  O   UNK     0       4.825  -4.691   0.000  0.00  0.00    -0.186 OA
HETATM    4  C   UNK     0       5.254  -1.980   0.000  0.00  0.00     0.197 A 
HETATM    5  C   UNK     0       5.730  -3.445   0.000  0.00  0.00     0.181 A 
HETATM    6  C   UNK     0       6.500  -1.075   0.000  0.00  0.00     0.194 A 
HETATM    7  C   UNK     0       7.270  -3.445   0.000  0.00  0.00     0.140 A 
ENDROOT
BRANCH   6   8
HETATM    8  N   UNK     0       6.500   0.465   0.000  0.00  0.00    -0.270 N 
HETATM    9  C   UNK     0       7.834   1.235   0.000  0.00  0.00     0.119 A 
HETATM   10  C   UNK     0       7.834   2.775   0.000  0.00  0.00     0.085 A 
HETATM   11  C   UNK     0       6.500   3.545   0.000  0.00  0.00     0.134 A 
HETATM   12  N   UNK     0       5.167   2.775   0.000  0.00  0.00    -0.195 NA
HETATM   13  N   UNK     0       6.500   5.085   0.000  0.00  0.00    -0.084 NA
HETATM   14  C   UNK     0       5.167   1.235   0.000  0.00  0.00     0.284 A 
HETATM   15  O   UNK     0       3.833   0.465   0.000  0.00  0.00    -0.149 OA
ENDBRANCH   6   8
BRANCH   7  16
HETATM   16  C   UNK     0       8.175  -4.691   0.000  0.00  0.00     0.235 C 
HETATM   17  O   UNK     0       9.707  -4.529   0.000  0.00  0.00    -0.213 OA
ENDBRANCH   7  16
TORSDOF 2
