REMARK  8 active torsions:
REMARK  status: ('A' for Active; 'I' for Inactive)
REMARK    1  A    between atoms: C_7  and  C_9 
REMARK       I    between atoms: C_9  and  N_57 
REMARK    2  A    between atoms: C_15  and  C_18 
REMARK       I    between atoms: C_18  and  N_23 
REMARK    3  A    between atoms: N_23  and  C_24 
REMARK    4  A    between atoms: C_42  and  C_43 
REMARK    5  A    between atoms: C_53  and  C_55 
REMARK    6  A    between atoms: N_57  and  C_58 
REMARK    7  A    between atoms: C_76  and  C_77 
REMARK    8  A    between atoms: C_87  and  C_89 
ROOT
HETATM    1  C   UNK     0       1.334   0.770   0.000  0.00  0.00     0.108 A 
HETATM    2  C   UNK     0       1.334  -0.770   0.000  0.00  0.00     0.116 A 
HETATM    3  O   UNK     0       0.000  -1.540   0.000  0.00  0.00    -0.305 OA
HETATM    4  C   UNK     0      -1.334   0.770   0.000  0.00  0.00     0.103 A 
HETATM    5  C   UNK     0      -1.334  -0.770   0.000  0.00  0.00     0.110 A 
HETATM    6  N   UNK     0       0.000   1.540   0.000  0.00  0.00    -0.242 NA
HETATM    7  C   UNK     0       2.667   1.540   0.000  0.00  0.00     0.078 A 
HETATM    8  C   UNK     0       2.667  -1.540   0.000  0.00  0.00     0.029 A 
HETATM    9  C   UNK     0       4.001   0.770   0.000  0.00  0.00     0.100 A 
HETATM   10  C   UNK     0       4.001  -0.770   0.000  0.00  0.00     0.142 A 
HETATM   11  C   UNK     0       2.667  -3.080   0.000  0.00  0.00     0.035 C 
HETATM   12  N   UNK     0       5.335   1.540   0.000  0.00  0.00    -0.098 NA
HETATM   13  C   UNK     0      -2.667   1.540   0.000  0.00  0.00     0.041 A 
HETATM   14  C   UNK     0      -2.667  -1.540   0.000  0.00  0.00    -0.019 A 
HETATM   15  O   UNK     0       5.335  -1.540   0.000  0.00  0.00    -0.189 OA
HETATM   16  C   UNK     0      -4.001   0.770   0.000  0.00  0.00     0.036 A 
HETATM   17  C   UNK     0      -4.001  -0.770   0.000  0.00  0.00     0.029 A 
HETATM   18  C   UNK     0      -2.667  -3.080   0.000  0.00  0.00     0.029 C 
ENDROOT
BRANCH   7  19
HETATM   19  C   UNK     0       2.667   3.080   0.000  0.00  0.00     0.215 C 
HETATM   20  N   UNK     0       4.001   3.850   0.000  0.00  0.00    -0.214 NA
HETATM   21  O   UNK     0       1.334   3.850   0.000  0.00  0.00    -0.169 OA
BRANCH  20  22
HETATM   22  C   UNK     0       4.001   5.390   0.000  0.00  0.00     0.146 A 
HETATM   23  C   UNK     0       2.667   6.160   0.000  0.00  0.00     0.232 A 
HETATM   24  O   UNK     0       1.334   5.390   0.000  0.00  0.00    -0.168 OA
HETATM   25  N   UNK     0       2.667  12.320   0.000  0.00  0.00    -0.216 NA
HETATM   26  C   UNK     0       5.335  13.860   0.000  0.00  0.00     0.117 A 
HETATM   27  C   UNK     0       8.002  12.320   0.000  0.00  0.00     0.208 A 
HETATM   28  N   UNK     0       9.336  13.090   0.000  0.00  0.00    -0.329 N 
HETATM   29  O   UNK     0       8.002  10.780   0.000  0.00  0.00    -0.170 OA
HETATM   30  C   UNK     0       9.656  14.596   0.000  0.00  0.00     0.103 A 
HETATM   31  C   UNK     0      10.669  12.320   0.000  0.00  0.00     0.176 A 
HETATM   32  C   UNK     0      11.187  14.757   0.000  0.00  0.00     0.026 A 
HETATM   33  C   UNK     0      11.814  13.350   0.000  0.00  0.00     0.023 A 
HETATM   34  C   UNK     0      10.669  10.780   0.000  0.00  0.00     0.179 A 
HETATM   35  O   UNK     0       9.336  10.010   0.000  0.00  0.00    -0.175 OA
HETATM   36  N   UNK     0      12.003  10.010   0.000  0.00  0.00    -0.321 N 
HETATM   37  C   UNK     0      12.003   8.470   0.000  0.00  0.00     0.176 A 
HETATM   38  C   UNK     0      13.337  10.780   0.000  0.00  0.00     0.128 C 
HETATM   39  C   UNK     0      10.669   7.700   0.000  0.00  0.00     0.194 A 
HETATM   40  O   UNK     0       9.336   8.470   0.000  0.00  0.00    -0.174 OA
HETATM   41  N   UNK     0      10.669   6.160   0.000  0.00  0.00    -0.304 N 
HETATM   42  C   UNK     0      12.003   5.390   0.000  0.00  0.00     0.133 C 
HETATM   43  C   UNK     0       9.336   5.390   0.000  0.00  0.00     0.103 A 
HETATM   44  C   UNK     0       8.002   6.160   0.000  0.00  0.00     0.248 A 
HETATM   45  O   UNK     0       6.668   5.390   0.000  0.00  0.00    -0.285 OA
HETATM   46  O   UNK     0       8.002   7.700   0.000  0.00  0.00    -0.161 OA
HETATM   47  C   UNK     0       5.335   6.160   0.000  0.00  0.00     0.102 A 
HETATM   48  C   UNK     0       5.335   7.700   0.000  0.00  0.00     0.060 C 
BRANCH  26  49
HETATM   49  C   UNK     0       5.335  15.400   0.000  0.00  0.00    -0.022 C 
HETATM   50  C   UNK     0       6.668  16.170   0.000  0.00  0.00     0.028 C 
HETATM   51  C   UNK     0       4.001  16.170   0.000  0.00  0.00     0.028 C 
ENDBRANCH  26  49
BRANCH  43  52
HETATM   52  C   UNK     0       9.336   3.850   0.000  0.00  0.00    -0.024 C 
HETATM   53  C   UNK     0      10.669   3.080   0.000  0.00  0.00     0.028 C 
HETATM   54  C   UNK     0       8.002   3.080   0.000  0.00  0.00     0.028 C 
ENDBRANCH  43  52
ENDBRANCH  20  22
ENDBRANCH   7  19
BRANCH  13  55
HETATM   55  C   UNK     0      -2.667   3.080   0.000  0.00  0.00     0.210 C 
HETATM   56  N   UNK     0      -4.001   3.850   0.000  0.00  0.00    -0.215 NA
HETATM   57  O   UNK     0      -1.334   3.850   0.000  0.00  0.00    -0.170 OA
BRANCH  56  58
HETATM   58  C   UNK     0      -4.001   5.390   0.000  0.00  0.00     0.146 A 
HETATM   59  C   UNK     0      -2.667   6.160   0.000  0.00  0.00     0.232 A 
HETATM   60  O   UNK     0      -1.334   5.390   0.000  0.00  0.00    -0.168 OA
HETATM   61  N   UNK     0      -2.667  12.320   0.000  0.00  0.00    -0.216 NA
HETATM   62  C   UNK     0      -5.335  13.860   0.000  0.00  0.00     0.117 A 
HETATM   63  C   UNK     0      -8.002  12.320   0.000  0.00  0.00     0.208 A 
HETATM   64  N   UNK     0      -9.336  13.090   0.000  0.00  0.00    -0.329 N 
HETATM   65  O   UNK     0      -8.002  10.780   0.000  0.00  0.00    -0.170 OA
HETATM   66  C   UNK     0      -9.656  14.596   0.000  0.00  0.00     0.103 A 
HETATM   67  C   UNK     0     -10.669  12.320   0.000  0.00  0.00     0.176 A 
HETATM   68  C   UNK     0     -11.187  14.757   0.000  0.00  0.00     0.026 A 
HETATM   69  C   UNK     0     -11.814  13.350   0.000  0.00  0.00     0.023 A 
HETATM   70  C   UNK     0     -10.669  10.780   0.000  0.00  0.00     0.179 A 
HETATM   71  O   UNK     0      -9.336  10.010   0.000  0.00  0.00    -0.175 OA
HETATM   72  N   UNK     0     -12.003  10.010   0.000  0.00  0.00    -0.321 N 
HETATM   73  C   UNK     0     -12.003   8.470   0.000  0.00  0.00     0.176 A 
HETATM   74  C   UNK     0     -13.337  10.780   0.000  0.00  0.00     0.128 C 
HETATM   75  C   UNK     0     -10.669   7.700   0.000  0.00  0.00     0.194 A 
HETATM   76  O   UNK     0      -9.336   8.470   0.000  0.00  0.00    -0.174 OA
HETATM   77  N   UNK     0     -10.669   6.160   0.000  0.00  0.00    -0.304 N 
HETATM   78  C   UNK     0     -12.003   5.390   0.000  0.00  0.00     0.133 C 
HETATM   79  C   UNK     0      -9.336   5.390   0.000  0.00  0.00     0.103 A 
HETATM   80  C   UNK     0      -8.002   6.160   0.000  0.00  0.00     0.248 A 
HETATM   81  O   UNK     0      -6.668   5.390   0.000  0.00  0.00    -0.285 OA
HETATM   82  O   UNK     0      -8.002   7.700   0.000  0.00  0.00    -0.161 OA
HETATM   83  C   UNK     0      -5.335   6.160   0.000  0.00  0.00     0.102 A 
HETATM   84  C   UNK     0      -5.335   7.700   0.000  0.00  0.00     0.060 C 
BRANCH  62  85
HETATM   85  C   UNK     0      -5.335  15.400   0.000  0.00  0.00    -0.022 C 
HETATM   86  C   UNK     0      -6.668  16.170   0.000  0.00  0.00     0.028 C 
HETATM   87  C   UNK     0      -4.001  16.170   0.000  0.00  0.00     0.028 C 
ENDBRANCH  62  85
BRANCH  79  88
HETATM   88  C   UNK     0      -9.336   3.850   0.000  0.00  0.00    -0.024 C 
HETATM   89  C   UNK     0     -10.669   3.080   0.000  0.00  0.00     0.028 C 
HETATM   90  C   UNK     0      -8.002   3.080   0.000  0.00  0.00     0.028 C 
ENDBRANCH  79  88
ENDBRANCH  56  58
ENDBRANCH  13  55
TORSDOF 8
