REMARK  6 active torsions:
REMARK  status: ('A' for Active; 'I' for Inactive)
REMARK    1  A    between atoms: C_3  and  C_9 
REMARK    2  A    between atoms: N_11  and  C_14 
REMARK    3  A    between atoms: C_14  and  C_15 
REMARK    4  A    between atoms: C_15  and  N_16 
REMARK       I    between atoms: N_16  and  C_17 
REMARK    5  A    between atoms: C_17  and  C_18 
REMARK    6  A    between atoms: C_21  and  C_23 
ROOT
HETATM    1  C   UNK     0      -7.656  -1.522   0.000  0.00  0.00     0.044 A 
HETATM    2  C   UNK     0      -6.322  -0.756   0.000  0.00  0.00     0.061 A 
HETATM    3  C   UNK     0      -4.987  -1.522   0.000  0.00  0.00    -0.023 A 
HETATM    4  C   UNK     0      -4.987  -3.073   0.000  0.00  0.00     0.029 A 
HETATM    5  C   UNK     0      -6.322  -3.839   0.000  0.00  0.00     0.041 A 
HETATM    6  C   UNK     0      -7.656  -3.073   0.000  0.00  0.00     0.040 A 
HETATM    7  C   UNK     0      -8.990  -3.839   0.000  0.00  0.00     0.018 C 
HETATM    8  N   UNK     0     -10.325  -4.614   0.000  0.00  0.00    -0.096 N 
HETATM    9 Cl   UNK     0      -8.990  -0.756   0.000  0.00  0.00    -0.086 Cl
ENDROOT
BRANCH   3  10
HETATM   10  C   UNK     0      -3.644  -0.756   0.000  0.00  0.00     0.073 A 
HETATM   11  N   UNK     0      -2.237  -1.380   0.000  0.00  0.00    -0.178 NA
HETATM   12  N   UNK     0      -1.203  -0.235   0.000  0.00  0.00    -0.267 N 
HETATM   13  C   UNK     0      -1.978   1.100   0.000  0.00  0.00     0.129 A 
HETATM   14  C   UNK     0      -3.483   0.781   0.000  0.00  0.00     0.073 A 
BRANCH  12  15
HETATM   15  C   UNK     0       0.325  -0.395   0.000  0.00  0.00     0.163 C 
BRANCH  15  16
HETATM   16  C   UNK     0       1.237   0.851   0.000  0.00  0.00     0.064 C 
HETATM   17  C   UNK     0       0.604   2.259   0.000  0.00  0.00     0.050 C 
BRANCH  16  18
HETATM   18  N   UNK     0       2.766   0.690   0.000  0.00  0.00    -0.226 NA
HETATM   19  C   UNK     0       3.678   1.937   0.000  0.00  0.00     0.228 C 
HETATM   20  O   UNK     0       3.045   3.353   0.000  0.00  0.00    -0.168 OA
BRANCH  19  21
HETATM   21  C   UNK     0       5.206   1.776   0.000  0.00  0.00     0.130 A 
HETATM   22  N   UNK     0       5.981   0.442   0.000  0.00  0.00    -0.149 NA
HETATM   23  N   UNK     0       7.487   0.761   0.000  0.00  0.00    -0.150 NA
HETATM   24  C   UNK     0       7.656   2.297   0.000  0.00  0.00     0.108 A 
HETATM   25  C   UNK     0       6.240   2.922   0.000  0.00  0.00     0.101 A 
BRANCH  24  26
HETATM   26  C   UNK     0       8.990   3.064   0.000  0.00  0.00     0.124 C 
HETATM   27  C   UNK     0      10.325   2.297   0.000  0.00  0.00     0.062 C 
HETATM   28  O   UNK     0       8.990   4.614   0.000  0.00  0.00    -0.194 OA
ENDBRANCH  24  26
ENDBRANCH  19  21
ENDBRANCH  16  18
ENDBRANCH  15  16
ENDBRANCH  12  15
ENDBRANCH   3  10
TORSDOF 6
