REMARK WARNING: 32 MAX_TORS EXCEEDED!!!
REMARK  41 active torsions:
REMARK  status: ('A' for Active; 'I' for Inactive)
REMARK    1  A    between atoms: C_3  and  C_34 
REMARK    2  A    between atoms: C_5  and  C_9 
REMARK       I    between atoms: C_5  and  N_27 
REMARK       I    between atoms: C_8  and  N_20 
REMARK    3  A    between atoms: C_8  and  C_19 
REMARK    4  A    between atoms: C_10  and  C_17 
REMARK       I    between atoms: C_11  and  N_18 
REMARK    5  A    between atoms: C_11  and  C_31 
REMARK       I    between atoms: C_12  and  N_25 
REMARK    6  A    between atoms: C_12  and  C_32 
REMARK       I    between atoms: C_13  and  N_23 
REMARK    7  A    between atoms: C_13  and  C_29 
REMARK       I    between atoms: C_14  and  N_22 
REMARK    8  A    between atoms: C_14  and  C_30 
REMARK       I    between atoms: C_15  and  N_21 
REMARK    9  A    between atoms: C_15  and  C_28 
REMARK       I    between atoms: C_16  and  N_24 
REMARK   10  A    between atoms: C_16  and  C_35 
REMARK       I    between atoms: C_17  and  N_38 
REMARK   11  A    between atoms: N_18  and  C_19 
REMARK   12  A    between atoms: C_19  and  C_82 
REMARK   13  A    between atoms: N_20  and  C_28 
REMARK   14  A    between atoms: N_21  and  C_29 
REMARK   15  A    between atoms: N_22  and  C_31 
REMARK   16  A    between atoms: N_23  and  C_32 
REMARK   17  A    between atoms: N_24  and  C_30 
REMARK   18  A    between atoms: N_25  and  C_34 
REMARK   19  A    between atoms: N_27  and  C_40 
REMARK   20  A    between atoms: C_28  and  C_58 
REMARK   21  A    between atoms: C_29  and  C_57 
REMARK   22  A    between atoms: C_30  and  C_56 
REMARK   23  A    between atoms: C_31  and  C_60 
REMARK   24  A    between atoms: C_32  and  C_64 
REMARK       I    between atoms: C_33  and  N_41 
REMARK   25  A    between atoms: C_34  and  C_99 
REMARK   26  A    between atoms: C_35  and  N_37 
REMARK   27  A    between atoms: C_35  and  C_45 
REMARK   28  A    between atoms: C_36  and  C_40 
REMARK       I    between atoms: N_37  and  C_39 
REMARK   29  A    between atoms: N_38  and  C_68 
REMARK   30  A    between atoms: N_41  and  C_73 
REMARK   31  A    between atoms: C_45  and  C_59 
REMARK   32  A    between atoms: C_56  and  C_76 
REMARK   33  A    between atoms: C_57  and  C_75 
REMARK   34  A    between atoms: C_58  and  C_74 
REMARK   35  A    between atoms: C_60  and  C_79 
REMARK   36  A    between atoms: C_64  and  C_100 
REMARK   37  A    between atoms: N_80  and  C_106 
REMARK   38  A    between atoms: N_80  and  C_103 
REMARK   39  A    between atoms: C_99  and  C_109 
REMARK   40  A    between atoms: C_106  and  C_110 
REMARK   41  A    between atoms: C_109  and  C_110 
ROOT
HETATM    1  C   UNK     0      -1.283  -1.645   0.000  0.00  0.00     0.127 C 
ENDROOT
BRANCH   1   2
HETATM    2  C   UNK     0       0.062  -2.430   0.000  0.00  0.00     0.231 C 
HETATM    3  N   UNK     0       1.400  -1.660   0.000  0.00  0.00    -0.215 NA
HETATM    4  O   UNK     0       0.062  -3.978   0.000  0.00  0.00    -0.168 OA
BRANCH   3   5
HETATM    5  C   UNK     0       2.730  -2.430   0.000  0.00  0.00     0.127 C 
BRANCH   5   6
HETATM    6  C   UNK     0       4.059  -1.660   0.000  0.00  0.00     0.231 C 
HETATM    7  N   UNK     0       5.405  -2.430   0.000  0.00  0.00    -0.215 NA
HETATM    8  O   UNK     0       4.059  -0.105   0.000  0.00  0.00    -0.168 OA
BRANCH   7   9
HETATM    9  C   UNK     0       6.734  -1.660   0.000  0.00  0.00     0.127 C 
BRANCH   9  10
HETATM   10  C   UNK     0       8.064  -2.430   0.000  0.00  0.00     0.230 C 
HETATM   11  N   UNK     0       9.402  -1.660   0.000  0.00  0.00    -0.224 NA
HETATM   12  O   UNK     0       8.064  -3.970   0.000  0.00  0.00    -0.168 OA
BRANCH  11  13
HETATM   13  C   UNK     0      10.732  -2.430   0.000  0.00  0.00     0.082 C 
BRANCH  13  14
HETATM   14  C   UNK     0      12.062  -1.660   0.000  0.00  0.00     0.212 A 
HETATM   15  N   UNK     0      13.391  -2.415   0.000  0.00  0.00    -0.205 NA
HETATM   16  C   UNK     0      14.737  -1.645   0.000  0.00  0.00     0.065 A 
HETATM   17  C   UNK     0      13.391  -0.875   0.000  0.00  0.00     0.161 A 
HETATM   18  C   UNK     0      14.737  -0.105   0.000  0.00  0.00     0.081 A 
HETATM   19  C   UNK     0      13.788   0.618   0.000  0.00  0.00     0.054 A 
HETATM   20  O   UNK     0      12.062  -0.105   0.000  0.00  0.00    -0.326 OA
BRANCH  16  21
HETATM   21  C   UNK     0      16.067  -2.415   0.000  0.00  0.00     0.219 C 
HETATM   22  N   UNK     0      17.396  -1.660   0.000  0.00  0.00    -0.221 NA
HETATM   23  O   UNK     0      16.067  -3.954   0.000  0.00  0.00    -0.169 OA
BRANCH  22  24
HETATM   24  C   UNK     0      18.734  -2.430   0.000  0.00  0.00     0.100 C 
HETATM   25  C   UNK     0      18.734  -3.970   0.000  0.00  0.00     0.056 C 
BRANCH  24  26
HETATM   26  C   UNK     0      20.064  -1.660   0.000  0.00  0.00     0.214 C 
HETATM   27  O   UNK     0      20.064  -0.105   0.000  0.00  0.00    -0.174 OA
HETATM   28  N   UNK     0      21.393  -2.415   0.000  0.00  0.00    -0.070 NA
ENDBRANCH  24  26
ENDBRANCH  22  24
ENDBRANCH  16  21
ENDBRANCH  13  14
BRANCH  13  29
HETATM   29  C   UNK     0      10.732  -3.970   0.000  0.00  0.00     0.045 C 
BRANCH  29  30
HETATM   30  C   UNK     0      12.062  -4.740   0.000  0.00  0.00     0.008 C 
BRANCH  30  31
HETATM   31  C   UNK     0      12.062  -6.279   0.000  0.00  0.00     0.027 C 
BRANCH  31  32
HETATM   32  C   UNK     0      13.391  -7.049   0.000  0.00  0.00     0.125 C 
BRANCH  32  33
HETATM   33  N   UNK     0      13.391  -8.589   0.000  0.00  0.00    -0.279 NA
BRANCH  33  34
HETATM   34  C   UNK     0      12.062  -9.359   0.000  0.00  0.00     0.032 C 
HETATM   35  C   UNK     0      12.062 -10.899   0.000  0.00  0.00     0.047 C 
HETATM   36  C   UNK     0      10.732  -8.589   0.000  0.00  0.00     0.047 C 
ENDBRANCH  33  34
ENDBRANCH  32  33
ENDBRANCH  31  32
ENDBRANCH  30  31
ENDBRANCH  29  30
ENDBRANCH  13  29
ENDBRANCH  11  13
ENDBRANCH   9  10
BRANCH   9  37
HETATM   37  C   UNK     0       6.734  -0.105   0.000  0.00  0.00     0.014 C 
BRANCH  37  38
HETATM   38  C   UNK     0       7.489   1.225   0.000  0.00  0.00    -0.042 C 
HETATM   39  C   UNK     0       9.029   1.233   0.000  0.00  0.00     0.026 C 
HETATM   40  C   UNK     0       6.711   2.555   0.000  0.00  0.00     0.026 C 
ENDBRANCH  37  38
ENDBRANCH   9  37
ENDBRANCH   7   9
ENDBRANCH   5   6
BRANCH   5  41
HETATM   41  C   UNK     0       2.730  -3.970   0.000  0.00  0.00     0.014 C 
BRANCH  41  42
HETATM   42  C   UNK     0       3.499  -5.300   0.000  0.00  0.00    -0.042 A 
HETATM   43  C   UNK     0       5.016  -5.300   0.000  0.00  0.00     0.028 A 
HETATM   44  C   UNK     0       5.778  -6.629   0.000  0.00  0.00     0.046 A 
HETATM   45  C   UNK     0       4.992  -7.944   0.000  0.00  0.00     0.041 A 
HETATM   46  C   UNK     0       3.468  -7.944   0.000  0.00  0.00     0.046 A 
HETATM   47  C   UNK     0       2.706  -6.614   0.000  0.00  0.00     0.028 A 
BRANCH  45  48
HETATM   48  N   UNK     0       5.762  -9.289   0.000  0.00  0.00    -0.217 NA
HETATM   49  C   UNK     0       4.985 -10.619   0.000  0.00  0.00     0.286 C 
HETATM   50  O   UNK     0       3.445 -10.603   0.000  0.00  0.00    -0.153 OA
HETATM   51  N   UNK     0       5.739 -11.956   0.000  0.00  0.00    -0.052 NA
ENDBRANCH  45  48
ENDBRANCH  41  42
ENDBRANCH   5  41
ENDBRANCH   3   5
ENDBRANCH   1   2
BRANCH   1  52
HETATM   52  N   UNK     0      -2.613  -2.430   0.000  0.00  0.00    -0.215 NA
HETATM   53  C   UNK     0      -3.966  -1.645   0.000  0.00  0.00     0.229 C 
HETATM   54  O   UNK     0      -3.966  -0.105   0.000  0.00  0.00    -0.168 OA
BRANCH  53  55
HETATM   55  C   UNK     0      -5.296  -2.430   0.000  0.00  0.00     0.138 C 
BRANCH  55  56
HETATM   56  N   UNK     0      -6.626  -1.645   0.000  0.00  0.00    -0.217 NA
HETATM   57  C   UNK     0      -7.979  -2.415   0.000  0.00  0.00     0.231 C 
HETATM   58  O   UNK     0      -7.979  -3.970   0.000  0.00  0.00    -0.168 OA
BRANCH  57  59
HETATM   59  C   UNK     0      -9.317  -1.645   0.000  0.00  0.00     0.127 C 
BRANCH  59  60
HETATM   60  N   UNK     0     -10.662  -2.415   0.000  0.00  0.00    -0.215 NA
HETATM   61  C   UNK     0     -11.999  -1.645   0.000  0.00  0.00     0.238 C 
HETATM   62  O   UNK     0     -11.999  -0.097   0.000  0.00  0.00    -0.167 OA
BRANCH  61  63
HETATM   63  C   UNK     0     -13.345  -2.415   0.000  0.00  0.00     0.157 C 
BRANCH  63  64
HETATM   64  N   UNK     0     -14.682  -1.645   0.000  0.00  0.00    -0.208 NA
HETATM   65  C   UNK     0     -16.028  -2.415   0.000  0.00  0.00     0.231 C 
HETATM   66  O   UNK     0     -16.028  -3.970   0.000  0.00  0.00    -0.168 OA
BRANCH  65  67
HETATM   67  C   UNK     0     -17.357  -1.645   0.000  0.00  0.00     0.126 C 
BRANCH  67  68
HETATM   68  N   UNK     0     -18.695  -2.415   0.000  0.00  0.00    -0.220 NA
HETATM   69  C   UNK     0     -20.040  -1.637   0.000  0.00  0.00     0.190 C 
HETATM   70  O   UNK     0     -20.040  -0.081   0.000  0.00  0.00    -0.174 OA
HETATM   71  C   UNK     0     -21.393  -2.407   0.000  0.00  0.00     0.083 C 
ENDBRANCH  67  68
BRANCH  67  72
HETATM   72  C   UNK     0     -17.357  -0.097   0.000  0.00  0.00     0.015 C 
BRANCH  72  73
HETATM   73  C   UNK     0     -16.595   1.248   0.000  0.00  0.00    -0.038 A 
HETATM   74  C   UNK     0     -17.381   2.578   0.000  0.00  0.00     0.043 A 
HETATM   75  C   UNK     0     -16.634   3.908   0.000  0.00  0.00    -0.048 A 
HETATM   76  C   UNK     0     -17.428   5.238   0.000  0.00  0.00     0.022 A 
HETATM   77  C   UNK     0     -15.079   3.931   0.000  0.00  0.00    -0.051 A 
HETATM   78  C   UNK     0     -16.681   6.591   0.000  0.00  0.00     0.005 A 
HETATM   79  C   UNK     0     -15.118   6.614   0.000  0.00  0.00     0.005 A 
HETATM   80  C   UNK     0     -14.325   5.284   0.000  0.00  0.00     0.021 A 
HETATM   81  C   UNK     0     -14.301   2.609   0.000  0.00  0.00     0.026 A 
HETATM   82  C   UNK     0     -15.056   1.271   0.000  0.00  0.00     0.027 A 
ENDBRANCH  72  73
ENDBRANCH  67  72
ENDBRANCH  65  67
ENDBRANCH  63  64
BRANCH  63  83
HETATM   83  C   UNK     0     -13.345  -3.970   0.000  0.00  0.00    -0.106 C 
BRANCH  83  84
HETATM   84  C   UNK     0     -12.948  -5.463   0.000  0.00  0.00     0.059 A 
HETATM   85  C   UNK     0     -14.045  -6.544   0.000  0.00  0.00     0.018 A 
HETATM   86  C   UNK     0     -13.648  -8.029   0.000  0.00  0.00     0.035 A 
HETATM   87  C   UNK     0     -12.155  -8.434   0.000  0.00  0.00     0.013 A 
HETATM   88  C   UNK     0     -11.058  -7.337   0.000  0.00  0.00     0.035 A 
HETATM   89 Cl   UNK     0     -11.758  -9.927   0.000  0.00  0.00    -0.092 Cl
HETATM   90  C   UNK     0     -11.463  -5.844   0.000  0.00  0.00     0.018 A 
ENDBRANCH  83  84
ENDBRANCH  63  83
ENDBRANCH  61  63
ENDBRANCH  59  60
BRANCH  59  91
HETATM   91  C   UNK     0      -9.317  -0.097   0.000  0.00  0.00     0.016 C 
BRANCH  91  92
HETATM   92  C   UNK     0      -8.562   1.248   0.000  0.00  0.00    -0.019 A 
HETATM   93  C   UNK     0      -9.340   2.555   0.000  0.00  0.00     0.142 A 
HETATM   94  N   UNK     0      -8.593   3.892   0.000  0.00  0.00    -0.291 NA
HETATM   95  C   UNK     0      -7.046   3.916   0.000  0.00  0.00     0.121 A 
HETATM   96  C   UNK     0      -6.276   2.601   0.000  0.00  0.00     0.030 A 
HETATM   97  C   UNK     0      -7.022   1.256   0.000  0.00  0.00     0.026 A 
ENDBRANCH  91  92
ENDBRANCH  59  91
ENDBRANCH  57  59
ENDBRANCH  55  56
BRANCH  55  98
HETATM   98  C   UNK     0      -5.296  -3.978   0.000  0.00  0.00     0.232 C 
HETATM   99  O   UNK     0      -3.951  -4.747   0.000  0.00  0.00    -0.214 OA
ENDBRANCH  55  98
ENDBRANCH  53  55
ENDBRANCH   1  52
BRANCH   1 100
HETATM  100  C   UNK     0      -1.283  -0.105   0.000  0.00  0.00     0.014 C 
BRANCH 100 101
HETATM  101  C   UNK     0      -0.513   1.248   0.000  0.00  0.00    -0.042 A 
HETATM  102  C   UNK     0       1.026   1.256   0.000  0.00  0.00     0.028 A 
HETATM  103  C   UNK     0       1.788   2.601   0.000  0.00  0.00     0.046 A 
HETATM  104  C   UNK     0       1.003   3.931   0.000  0.00  0.00     0.040 A 
HETATM  105  C   UNK     0      -0.544   3.908   0.000  0.00  0.00     0.046 A 
HETATM  106  C   UNK     0      -1.306   2.562   0.000  0.00  0.00     0.028 A 
BRANCH 104 107
HETATM  107  N   UNK     0       1.765   5.269   0.000  0.00  0.00    -0.228 NA
HETATM  108  C   UNK     0       0.980   6.599   0.000  0.00  0.00     0.226 C 
HETATM  109  O   UNK     0      -0.568   6.637   0.000  0.00  0.00    -0.168 OA
BRANCH 108 110
HETATM  110  C   UNK     0       1.773   7.928   0.000  0.00  0.00     0.115 A 
HETATM  111  N   UNK     0       1.026   9.274   0.000  0.00  0.00    -0.204 NA
HETATM  112  C   UNK     0       1.820  10.603   0.000  0.00  0.00     0.302 A 
HETATM  113  N   UNK     0       3.375  10.580   0.000  0.00  0.00    -0.180 NA
HETATM  114  O   UNK     0       1.073  11.956   0.000  0.00  0.00    -0.147 OA
HETATM  115  C   UNK     0       4.122   9.227   0.000  0.00  0.00     0.199 A 
HETATM  116  C   UNK     0       3.313   7.897   0.000  0.00  0.00     0.124 A 
HETATM  117  O   UNK     0       5.669   9.188   0.000  0.00  0.00    -0.174 OA
ENDBRANCH 108 110
ENDBRANCH 104 107
ENDBRANCH 100 101
ENDBRANCH   1 100
TORSDOF 41
