REMARK  2 active torsions:
REMARK  status: ('A' for Active; 'I' for Inactive)
REMARK    1  A    between atoms: C_7  and  C_22 
REMARK    2  A    between atoms: C_19  and  C_26 
ROOT
HETATM    1  C   UNK     0      -3.288  -1.393   0.000  0.00  0.00    -0.032 A 
HETATM    2  C   UNK     0      -4.622  -2.163   0.000  0.00  0.00     0.053 A 
HETATM    3  C   UNK     0      -3.288  -4.473   0.000  0.00  0.00     0.034 A 
HETATM    4  C   UNK     0      -1.955  -3.703   0.000  0.00  0.00     0.011 A 
HETATM    5  C   UNK     0      -0.621  -4.473   0.000  0.00  0.00     0.000 A 
HETATM    6  C   UNK     0       0.712  -3.703   0.000  0.00  0.00    -0.004 A 
HETATM    7  C   UNK     0      -4.622  -3.703   0.000  0.00  0.00     0.156 A 
HETATM    8  O   UNK     0      -5.956  -4.473   0.000  0.00  0.00    -0.223 OA
HETATM    9  C   UNK     0      -1.955  -2.163   0.000  0.00  0.00     0.071 A 
HETATM   10  C   UNK     0      -1.955  -0.623   0.000  0.00  0.00     0.136 A 
HETATM   11  C   UNK     0      -0.621  -1.393   0.000  0.00  0.00     0.157 A 
HETATM   12  F   UNK     0      -0.621  -2.933   0.000  0.00  0.00    -0.238 F 
HETATM   13  C   UNK     0      -0.621   0.147   0.000  0.00  0.00     0.147 A 
HETATM   14  O   UNK     0      -1.955   0.917   0.000  0.00  0.00    -0.352 OA
HETATM   15  C   UNK     0       0.712  -2.163   0.000  0.00  0.00     0.047 A 
ENDROOT
BRANCH  13  16
HETATM   16  C   UNK     0       0.712   0.917   0.000  0.00  0.00     0.043 A 
HETATM   17  C   UNK     0       2.046   0.147   0.000  0.00  0.00     0.036 A 
HETATM   18  C   UNK     0       3.511   0.623   0.000  0.00  0.00     0.146 A 
HETATM   19  C   UNK     0       2.046  -1.393   0.000  0.00  0.00     0.019 A 
HETATM   20  C   UNK     0       2.046   1.687   0.000  0.00  0.00     0.101 A 
HETATM   21  C   UNK     0       4.416  -0.623   0.000  0.00  0.00     0.030 A 
HETATM   22  C   UNK     0       3.511   2.163   0.000  0.00  0.00     0.238 A 
HETATM   23  O   UNK     0       4.844   1.393   0.000  0.00  0.00    -0.330 OA
HETATM   24  C   UNK     0       3.511  -1.869   0.000  0.00  0.00    -0.003 A 
HETATM   25  C   UNK     0       5.956  -0.623   0.000  0.00  0.00     0.003 C 
HETATM   26  C   UNK     0       2.177   2.933   0.000  0.00  0.00     0.141 A 
HETATM   27  O   UNK     0       4.844   2.933   0.000  0.00  0.00    -0.191 OA
HETATM   28  O   UNK     0       2.177   4.473   0.000  0.00  0.00    -0.194 OA
ENDBRANCH  13  16
TORSDOF 2
