REMARK  7 active torsions:
REMARK  status: ('A' for Active; 'I' for Inactive)
REMARK    1  A    between atoms: C_4  and  O_22 
REMARK    2  A    between atoms: O_22  and  C_23 
REMARK    3  A    between atoms: C_23  and  C_24 
REMARK    4  A    between atoms: C_24  and  C_26 
REMARK    5  A    between atoms: O_37  and  C_38 
REMARK    6  A    between atoms: C_46  and  C_47 
REMARK    7  A    between atoms: C_56  and  O_58 
ROOT
HETATM    1  C   UNK     0       9.029   2.152   0.000  0.00  0.00    -0.050 A 
HETATM    2  C   UNK     0       9.029   3.692   0.000  0.00  0.00     0.054 A 
HETATM    3  C   UNK     0       7.695   4.462   0.000  0.00  0.00     0.150 A 
HETATM    4  C   UNK     0       0.309   2.758   0.000  0.00  0.00     0.175 A 
HETATM    5  C   UNK     0       1.079   1.425   0.000  0.00  0.00     0.058 A 
HETATM    6  C   UNK     0       7.695   1.382   0.000  0.00  0.00     0.018 A 
HETATM    7  C   UNK     0       5.248   5.181   0.000  0.00  0.00     0.187 A 
HETATM    8  C   UNK     0       3.708   5.181   0.000  0.00  0.00     0.133 A 
HETATM    9  C   UNK     0       4.865   0.334   0.000  0.00  0.00     0.122 A 
HETATM   10  C   UNK     0       6.361   3.692   0.000  0.00  0.00     0.098 A 
HETATM   11  C   UNK     0       6.361   2.152   0.000  0.00  0.00     0.065 A 
HETATM   12  C   UNK     0       2.619   4.092   0.000  0.00  0.00    -0.003 A 
HETATM   13  C   UNK     0       2.619   1.425   0.000  0.00  0.00     0.155 A 
HETATM   14  O   UNK     0       2.619  -0.115   0.000  0.00  0.00    -0.216 OA
HETATM   15  O   UNK     0       7.695  -0.158   0.000  0.00  0.00     0.000 OA
HETATM   16  C   UNK     0       6.361   5.232   0.000  0.00  0.00     0.200 A 
HETATM   17  C   UNK     0       1.079   4.092   0.000  0.00  0.00    -0.028 A 
HETATM   18  C   UNK     0       0.309   5.426   0.000  0.00  0.00     0.028 C 
HETATM   19  C   UNK     0       4.723   3.528   0.000  0.00  0.00     0.018 A 
HETATM   20  C   UNK     0       3.389   2.758   0.000  0.00  0.00     0.051 A 
HETATM   21  C   UNK     0       4.723   1.988   0.000  0.00  0.00     0.030 A 
HETATM   22  O   UNK     0       3.119   6.604   0.000  0.00  0.00    -0.193 OA
HETATM   23  O   UNK     0       5.938   6.558   0.000  0.00  0.00    -0.328 OA
HETATM   24  O   UNK     0       7.686   6.004   0.000  0.00  0.00    -0.334 OA
HETATM   25  O   UNK     0       4.866  -1.213   0.000  0.00  0.00    -0.312 OA
HETATM   26  C   UNK     0       3.533  -1.984   0.000  0.00  0.00     0.220 A 
HETATM   27  O   UNK     0       2.199  -1.215   0.000  0.00  0.00    -0.171 OA
HETATM   28  C   UNK     0       9.022  -0.935   0.000  0.00  0.00     0.153 A 
HETATM   29  O   UNK     0       9.013  -2.475   0.000  0.00  0.00    -0.224 OA
HETATM   30  C   UNK     0      10.360  -0.173   0.000  0.00  0.00     0.036 A 
HETATM   31  C   UNK     0       9.022   0.623   0.000  0.00  0.00     0.036 A 
HETATM   32  O   UNK     0      10.358   1.366   0.000  0.00  0.00     0.000 OA
ENDROOT
BRANCH   4  33
HETATM   33  O   UNK     0      -1.024   1.988   0.000  0.00  0.00    -0.315 OA
BRANCH  33  34
HETATM   34  C   UNK     0      -2.358   2.758   0.000  0.00  0.00     0.255 C 
HETATM   35  O   UNK     0      -2.358   4.298   0.000  0.00  0.00    -0.161 OA
BRANCH  34  36
HETATM   36  C   UNK     0      -3.692   1.989   0.000  0.00  0.00     0.197 C 
HETATM   37  O   UNK     0      -3.692   0.449   0.000  0.00  0.00    -0.184 OA
BRANCH  36  38
HETATM   38  C   UNK     0      -5.025   2.759   0.000  0.00  0.00     0.109 A 
HETATM   39  N   UNK     0      -5.025   4.299   0.000  0.00  0.00    -0.215 NA
HETATM   40  C   UNK     0      -6.352   5.052   0.000  0.00  0.00     0.257 A 
HETATM   41  O   UNK     0      -6.363   6.592   0.000  0.00  0.00    -0.165 OA
HETATM   42  O   UNK     0      -7.681   4.273   0.000  0.00  0.00     0.000 OA
HETATM   43  C   UNK     0      -7.693   2.759   0.000  0.00  0.00    -0.029 A 
HETATM   44  C   UNK     0      -6.359   1.989   0.000  0.00  0.00    -0.006 A 
HETATM   45  C   UNK     0      -9.026   1.989   0.000  0.00  0.00     0.026 A 
HETATM   46  C   UNK     0      -6.359   0.449   0.000  0.00  0.00     0.028 A 
HETATM   47  C   UNK     0      -7.693  -0.321   0.000  0.00  0.00     0.005 A 
HETATM   48  C   UNK     0      -9.026   0.449   0.000  0.00  0.00     0.005 A 
BRANCH  42  49
HETATM   49  C   UNK     0      -9.020   5.033   0.000  0.00  0.00     0.000 A 
HETATM   50  C   UNK     0     -10.348   4.254   0.000  0.00  0.00     0.000 A 
HETATM   51  C   UNK     0     -10.360   5.813   0.000  0.00  0.00     0.000 A 
HETATM   52  C   UNK     0      -9.031   6.573   0.000  0.00  0.00     0.000 A 
ENDBRANCH  42  49
ENDBRANCH  36  38
ENDBRANCH  34  36
ENDBRANCH  33  34
ENDBRANCH   4  33
BRANCH  26  53
HETATM   53  C   UNK     0       3.534  -3.524   0.000  0.00  0.00     0.005 A 
HETATM   54  C   UNK     0       4.868  -4.294   0.000  0.00  0.00     0.026 A 
HETATM   55  C   UNK     0       4.868  -5.834   0.000  0.00  0.00     0.004 A 
HETATM   56  C   UNK     0       3.534  -6.604   0.000  0.00  0.00     0.001 A 
HETATM   57  C   UNK     0       2.200  -5.834   0.000  0.00  0.00     0.004 A 
HETATM   58  C   UNK     0       2.200  -4.294   0.000  0.00  0.00     0.026 A 
ENDBRANCH  26  53
TORSDOF 7
