REMARK  1 active torsions:
REMARK  status: ('A' for Active; 'I' for Inactive)
REMARK    1  A    between atoms: N_21  and  C_22 
ROOT
HETATM    1  C   UNK     0      11.455 -11.550   0.000  0.00  0.00     0.052 C 
HETATM    2  C   UNK     0      10.122 -12.320   0.000  0.00  0.00     0.055 A 
HETATM    3  C   UNK     0      10.122 -13.860   0.000  0.00  0.00     0.059 A 
HETATM    4  C   UNK     0      11.455 -14.630   0.000  0.00  0.00     0.067 A 
HETATM    5  C   UNK     0      11.455 -16.170   0.000  0.00  0.00    -0.034 A 
HETATM    6  C   UNK     0      12.789 -16.940   0.000  0.00  0.00     0.023 A 
HETATM    7  C   UNK     0      12.789 -18.480   0.000  0.00  0.00     0.010 A 
HETATM    8  C   UNK     0      11.455 -19.250   0.000  0.00  0.00     0.038 A 
HETATM    9  C   UNK     0      10.122 -18.480   0.000  0.00  0.00     0.038 A 
HETATM   10  C   UNK     0      10.122 -16.940   0.000  0.00  0.00     0.042 A 
HETATM   11  C   UNK     0       8.788 -16.170   0.000  0.00  0.00     0.198 A 
HETATM   12  O   UNK     0       7.454 -16.940   0.000  0.00  0.00    -0.171 OA
HETATM   13  N   UNK     0       8.788 -14.630   0.000  0.00  0.00    -0.291 N 
HETATM   14  C   UNK     0       7.454 -13.860   0.000  0.00  0.00     0.055 A 
HETATM   15  C   UNK     0       6.121 -14.630   0.000  0.00  0.00     0.045 A 
HETATM   16  C   UNK     0       4.787 -13.860   0.000  0.00  0.00     0.007 A 
HETATM   17  C   UNK     0       4.787 -12.320   0.000  0.00  0.00     0.007 A 
HETATM   18  C   UNK     0       6.121 -11.550   0.000  0.00  0.00     0.045 A 
HETATM   19  C   UNK     0       7.454 -12.320   0.000  0.00  0.00     0.054 A 
HETATM   20 Cl   UNK     0       8.788 -19.250   0.000  0.00  0.00    -0.087 Cl
HETATM   21  N   UNK     0       8.788 -11.550   0.000  0.00  0.00    -0.296 N 
ENDROOT
BRANCH  21  22
HETATM   22  C   UNK     0       8.788 -10.010   0.000  0.00  0.00     0.165 A 
HETATM   23  C   UNK     0       7.454  -9.240   0.000  0.00  0.00     0.147 A 
HETATM   24  C   UNK     0       7.454  -7.700   0.000  0.00  0.00     0.178 A 
HETATM   25  N   UNK     0       5.990  -9.716   0.000  0.00  0.00    -0.238 NA
HETATM   26  N   UNK     0       5.990  -7.224   0.000  0.00  0.00    -0.225 NA
HETATM   27  N   UNK     0       8.788  -6.930   0.000  0.00  0.00    -0.225 NA
HETATM   28  C   UNK     0       5.085  -8.470   0.000  0.00  0.00     0.253 A 
HETATM   29  C   UNK     0      10.122  -7.700   0.000  0.00  0.00     0.254 A 
HETATM   30  N   UNK     0      10.122  -9.240   0.000  0.00  0.00    -0.226 NA
ENDBRANCH  21  22
TORSDOF 1
