REMARK  10 active torsions:
REMARK  status: ('A' for Active; 'I' for Inactive)
REMARK    1  A    between atoms: C_2  and  C_3 
REMARK    2  A    between atoms: C_2  and  N_32 
REMARK    3  A    between atoms: C_3  and  N_4 
REMARK    4  A    between atoms: N_4  and  C_5 
REMARK    5  A    between atoms: C_9  and  C_11 
REMARK    6  A    between atoms: N_13  and  C_29 
REMARK    7  A    between atoms: C_15  and  C_16 
REMARK    8  A    between atoms: C_20  and  N_23 
REMARK    9  A    between atoms: N_23  and  S_24 
REMARK       I    between atoms: N_32  and  C_33 
REMARK   10  A    between atoms: C_33  and  O_35 
ROOT
HETATM    1  C   UNK     0     -11.615   0.455   0.000  0.00  0.00     0.035 A 
HETATM    2  C   UNK     0     -13.022   1.082   0.000  0.00  0.00     0.156 A 
HETATM    3  N   UNK     0     -14.052  -0.063   0.000  0.00  0.00    -0.255 N 
HETATM    4  N   UNK     0     -13.282  -1.397   0.000  0.00  0.00    -0.170 NA
HETATM    5  C   UNK     0     -11.776  -1.076   0.000  0.00  0.00     0.099 A 
ENDROOT
BRANCH   1   6
HETATM    6  C   UNK     0     -10.281   1.225   0.000  0.00  0.00     0.079 A 
HETATM    7  C   UNK     0     -10.281   2.765   0.000  0.00  0.00     0.073 A 
HETATM    8  C   UNK     0      -8.947   3.535   0.000  0.00  0.00     0.151 A 
HETATM    9  N   UNK     0      -7.614   2.765   0.000  0.00  0.00    -0.086 NA
HETATM   10  C   UNK     0      -7.614   1.225   0.000  0.00  0.00     0.742 A 
HETATM   11  N   UNK     0      -8.947   0.455   0.000  0.00  0.00    -0.065 NA
BRANCH  10  12
HETATM   12  N   UNK     0      -6.280   0.455   0.000  0.00  0.00    -0.080 NA
BRANCH  12  13
HETATM   13  C   UNK     0      -4.946   1.225   0.000  0.00  0.00     0.186 C 
BRANCH  13  14
HETATM   14  C   UNK     0      -3.613   0.455   0.000  0.00  0.00     0.067 C 
HETATM   15  C   UNK     0      -3.613  -1.085   0.000  0.00  0.00     0.050 C 
BRANCH  14  16
HETATM   16  N   UNK     0      -2.279   1.225   0.000  0.00  0.00    -0.205 NA
HETATM   17  C   UNK     0      -0.945   0.455   0.000  0.00  0.00     0.318 C 
HETATM   18  O   UNK     0      -0.945  -1.085   0.000  0.00  0.00    -0.141 OA
BRANCH  17  19
HETATM   19  O   UNK     0       0.388   1.225   0.000  0.00  0.00    -0.292 OA
HETATM   20  C   UNK     0       1.722   0.455   0.000  0.00  0.00     0.185 C 
ENDBRANCH  17  19
ENDBRANCH  14  16
ENDBRANCH  13  14
ENDBRANCH  12  13
ENDBRANCH  10  12
ENDBRANCH   1   6
BRANCH   5  21
HETATM   21  C   UNK     0     -10.631  -2.107   0.000  0.00  0.00     0.031 A 
HETATM   22  C   UNK     0      -9.167  -1.631   0.000  0.00  0.00     0.064 A 
HETATM   23  C   UNK     0      -8.022  -2.661   0.000  0.00  0.00     0.024 A 
HETATM   24  C   UNK     0      -8.342  -4.168   0.000  0.00  0.00     0.083 A 
HETATM   25 Cl   UNK     0      -6.558  -2.186   0.000  0.00  0.00    -0.091 Cl
HETATM   26  C   UNK     0      -9.807  -4.644   0.000  0.00  0.00     0.103 A 
HETATM   27  C   UNK     0     -10.952  -3.613   0.000  0.00  0.00     0.152 A 
HETATM   28  F   UNK     0     -12.416  -4.089   0.000  0.00  0.00    -0.203 F 
BRANCH  26  29
HETATM   29  N   UNK     0     -10.127  -6.150   0.000  0.00  0.00    -0.164 NA
BRANCH  29  30
HETATM   30  S   UNK     0      -8.983  -7.180   0.000  0.00  0.00     0.266 S 
HETATM   31  O   UNK     0      -7.952  -6.036   0.000  0.00  0.00    -0.203 OA
HETATM   32  O   UNK     0     -10.013  -8.325   0.000  0.00  0.00    -0.203 OA
HETATM   33  C   UNK     0      -7.838  -8.211   0.000  0.00  0.00     0.165 C 
ENDBRANCH  29  30
ENDBRANCH  26  29
ENDBRANCH   5  21
BRANCH   3  34
HETATM   34  C   UNK     0     -15.584   0.098   0.000  0.00  0.00     0.035 C 
HETATM   35  C   UNK     0     -16.489  -1.148   0.000  0.00  0.00     0.047 C 
HETATM   36  C   UNK     0     -16.210   1.505   0.000  0.00  0.00     0.047 C 
ENDBRANCH   3  34
TORSDOF 10
