REMARK  7 active torsions:
REMARK  status: ('A' for Active; 'I' for Inactive)
REMARK    1  A    between atoms: N_5  and  C_8 
REMARK    2  A    between atoms: C_11  and  C_21 
REMARK    3  A    between atoms: C_12  and  N_14 
REMARK    4  A    between atoms: N_14  and  C_15 
REMARK       I    between atoms: C_21  and  N_23 
REMARK    5  A    between atoms: N_23  and  C_24 
REMARK    6  A    between atoms: C_27  and  C_33 
REMARK    7  A    between atoms: C_33  and  C_34 
ROOT
HETATM    1  C   UNK     0       0.143   1.728   0.000  0.00  0.00     0.211 C 
HETATM    2  O   UNK     0      -0.887   0.583   0.000  0.00  0.00    -0.169 OA
HETATM    3  N   UNK     0       1.650   1.408   0.000  0.00  0.00    -0.200 NA
ENDROOT
BRANCH   1   4
HETATM    4  C   UNK     0      -0.333   3.192   0.000  0.00  0.00     0.036 A 
HETATM    5  C   UNK     0       0.698   4.337   0.000  0.00  0.00     0.037 A 
HETATM    6  C   UNK     0       0.222   5.802   0.000  0.00  0.00     0.044 A 
HETATM    7  C   UNK     0      -1.284   6.122   0.000  0.00  0.00     0.017 A 
HETATM    8  C   UNK     0      -2.315   4.977   0.000  0.00  0.00     0.084 A 
HETATM    9  C   UNK     0      -1.839   3.513   0.000  0.00  0.00     0.063 A 
BRANCH   7  10
HETATM   10  N   UNK     0      -1.760   7.586   0.000  0.00  0.00    -0.351 N 
HETATM   11  C   UNK     0      -0.730   8.731   0.000  0.00  0.00     0.125 A 
HETATM   12  C   UNK     0      -1.206  10.195   0.000  0.00  0.00     0.122 A 
HETATM   13  N   UNK     0      -2.712  10.516   0.000  0.00  0.00    -0.364 N 
HETATM   14  C   UNK     0      -3.188  11.980   0.000  0.00  0.00     0.121 C 
HETATM   15  C   UNK     0      -3.742   9.371   0.000  0.00  0.00     0.122 A 
HETATM   16  C   UNK     0      -3.267   7.907   0.000  0.00  0.00     0.125 A 
ENDBRANCH   7  10
BRANCH   9  17
HETATM   17  N   UNK     0      -2.869   2.368   0.000  0.00  0.00    -0.258 NA
BRANCH  17  18
HETATM   18  C   UNK     0      -4.376   2.688   0.000  0.00  0.00     0.042 A 
HETATM   19  C   UNK     0      -5.406   1.544   0.000  0.00  0.00     0.073 A 
HETATM   20  C   UNK     0      -6.912   1.864   0.000  0.00  0.00     0.148 A 
HETATM   21  O   UNK     0      -7.388   3.329   0.000  0.00  0.00    -0.353 OA
HETATM   22  C   UNK     0      -6.358   4.473   0.000  0.00  0.00     0.148 A 
HETATM   23  C   UNK     0      -4.852   4.153   0.000  0.00  0.00     0.073 A 
ENDBRANCH  17  18
ENDBRANCH   9  17
ENDBRANCH   1   4
BRANCH   3  24
HETATM   24  C   UNK     0       2.126  -0.057   0.000  0.00  0.00     0.183 A 
HETATM   25  C   UNK     0       3.590  -0.533   0.000  0.00  0.00     0.031 A 
HETATM   26  C   UNK     0       4.924   0.237   0.000  0.00  0.00     0.031 A 
HETATM   27  C   UNK     0       3.590  -2.073   0.000  0.00  0.00     0.080 A 
HETATM   28  C   UNK     0       6.258  -0.533   0.000  0.00  0.00     0.005 A 
HETATM   29  C   UNK     0       6.258  -2.073   0.000  0.00  0.00     0.007 A 
HETATM   30  C   UNK     0       4.924  -2.843   0.000  0.00  0.00     0.048 A 
HETATM   31  N   UNK     0       2.126  -2.549   0.000  0.00  0.00    -0.151 NA
HETATM   32  N   UNK     0       1.220  -1.303   0.000  0.00  0.00    -0.129 NA
BRANCH  28  33
HETATM   33  C   UNK     0       7.591   0.237   0.000  0.00  0.00     0.001 C 
BRANCH  33  34
HETATM   34  C   UNK     0       8.925  -0.533   0.000  0.00  0.00     0.013 A 
HETATM   35  C   UNK     0      10.259   0.237   0.000  0.00  0.00     0.053 A 
HETATM   36  C   UNK     0      11.592  -0.533   0.000  0.00  0.00     0.102 A 
HETATM   37  C   UNK     0      11.592  -2.073   0.000  0.00  0.00     0.104 A 
HETATM   38  F   UNK     0      12.926   0.237   0.000  0.00  0.00    -0.213 F 
HETATM   39  C   UNK     0      10.259  -2.843   0.000  0.00  0.00     0.102 A 
HETATM   40  C   UNK     0       8.925  -2.073   0.000  0.00  0.00     0.053 A 
HETATM   41  F   UNK     0      10.259  -4.383   0.000  0.00  0.00    -0.213 F 
ENDBRANCH  33  34
ENDBRANCH  28  33
ENDBRANCH   3  24
TORSDOF 7
