REMARK  4 active torsions:
REMARK  status: ('A' for Active; 'I' for Inactive)
REMARK    1  A    between atoms: N_2  and  C_22 
REMARK    2  A    between atoms: N_4  and  C_6 
REMARK    3  A    between atoms: C_9  and  C_15 
REMARK    4  A    between atoms: C_25  and  C_28 
REMARK       I    between atoms: C_28  and  N_29 
ROOT
HETATM    1  C   UNK     0      16.709 -23.023   0.000  0.00  0.00     0.027 A 
HETATM    2  C   UNK     0      16.709 -24.563   0.000  0.00  0.00     0.045 A 
HETATM    3  C   UNK     0      18.018 -22.253   0.000  0.00  0.00     0.070 A 
HETATM    4  C   UNK     0      19.404 -23.023   0.000  0.00  0.00     0.059 A 
HETATM    5  C   UNK     0      19.404 -24.563   0.000  0.00  0.00     0.033 A 
HETATM    6  C   UNK     0      18.018 -25.333   0.000  0.00  0.00     0.041 A 
HETATM    7  C   UNK     0      20.713 -25.333   0.000  0.00  0.00     0.017 C 
HETATM    8  N   UNK     0      22.099 -26.103   0.000  0.00  0.00    -0.096 N 
ENDROOT
BRANCH   4   9
HETATM    9  C   UNK     0      20.713 -22.253   0.000  0.00  0.00     0.416 C 
HETATM   10  F   UNK     0      22.099 -21.483   0.000  0.00  0.00    -0.166 F 
HETATM   11  F   UNK     0      21.483 -23.563   0.000  0.00  0.00    -0.166 F 
HETATM   12  F   UNK     0      19.943 -20.944   0.000  0.00  0.00    -0.166 F 
ENDBRANCH   4   9
BRANCH   1  13
HETATM   13  N   UNK     0      15.246 -22.561   0.000  0.00  0.00    -0.273 N 
HETATM   14  C   UNK     0      14.784 -21.098   0.000  0.00  0.00     0.188 A 
HETATM   15  N   UNK     0      13.244 -21.098   0.000  0.00  0.00    -0.309 N 
HETATM   16  S   UNK     0      15.695 -19.856   0.000  0.00  0.00    -0.040 SA
HETATM   17  C   UNK     0      12.782 -22.561   0.000  0.00  0.00     0.128 A 
HETATM   18  C   UNK     0      14.014 -23.485   0.000  0.00  0.00     0.195 A 
HETATM   19  C   UNK     0      11.449 -21.791   0.000  0.00  0.00     0.031 C 
HETATM   20  C   UNK     0      11.934 -23.847   0.000  0.00  0.00     0.031 C 
HETATM   21  O   UNK     0      14.014 -25.025   0.000  0.00  0.00    -0.173 OA
BRANCH  15  22
HETATM   22  C   UNK     0      12.334 -19.856   0.000  0.00  0.00     0.024 A 
HETATM   23  C   UNK     0      13.066 -18.519   0.000  0.00  0.00     0.096 A 
HETATM   24  C   UNK     0      12.265 -17.281   0.000  0.00  0.00     0.123 A 
HETATM   25  C   UNK     0      10.726 -17.240   0.000  0.00  0.00     0.045 A 
HETATM   26  F   UNK     0      13.028 -15.923   0.000  0.00  0.00    -0.209 F 
HETATM   27  C   UNK     0       9.994 -18.578   0.000  0.00  0.00     0.038 A 
HETATM   28  C   UNK     0      10.795 -19.893   0.000  0.00  0.00     0.045 A 
BRANCH  25  29
HETATM   29  C   UNK     0       9.956 -15.901   0.000  0.00  0.00     0.206 C 
HETATM   30  N   UNK     0       8.394 -15.975   0.000  0.00  0.00    -0.244 NA
HETATM   31  C   UNK     0       7.545 -14.654   0.000  0.00  0.00     0.154 C 
HETATM   32  O   UNK     0      10.675 -14.590   0.000  0.00  0.00    -0.170 OA
ENDBRANCH  25  29
ENDBRANCH  15  22
ENDBRANCH   1  13
TORSDOF 4
