REMARK  3 active torsions:
REMARK  status: ('A' for Active; 'I' for Inactive)
REMARK    1  A    between atoms: O_1  and  C_13 
REMARK    2  A    between atoms: O_1  and  C_19 
REMARK    3  A    between atoms: O_11  and  C_35 
ROOT
HETATM    1  O   UNK     0       7.033  -4.495   0.000  0.00  0.00     0.000 OA
HETATM    2  O   UNK     0      11.904   0.723   0.000  0.00  0.00    -0.190 OA
HETATM    3  O   UNK     0      11.904  -5.437   0.000  0.00  0.00    -0.190 OA
HETATM    4  O   UNK     0       5.483  -1.834   0.000  0.00  0.00    -0.216 OA
HETATM    5  O   UNK     0       3.953  -4.507   0.000  0.00  0.00    -0.190 OA
HETATM    6  O   UNK     0      14.596   0.777   0.000  0.00  0.00    -0.190 OA
HETATM    7  O   UNK     0      14.596  -5.490   0.000  0.00  0.00    -0.190 OA
HETATM    8  C   UNK     0       9.193  -0.763   0.000  0.00  0.00     0.076 A 
HETATM    9  C   UNK     0       7.798  -3.159   0.000  0.00  0.00     0.048 A 
HETATM   10  C   UNK     0       7.798  -1.555   0.000  0.00  0.00     0.054 A 
HETATM   11  C   UNK     0       9.193  -3.950   0.000  0.00  0.00     0.032 A 
HETATM   12  C   UNK     0      10.570  -1.587   0.000  0.00  0.00     0.042 A 
HETATM   13  C   UNK     0      10.570  -3.127   0.000  0.00  0.00     0.007 A 
HETATM   14  C   UNK     0      11.904  -0.817   0.000  0.00  0.00     0.134 A 
HETATM   15  C   UNK     0       6.258  -3.165   0.000  0.00  0.00     0.202 A 
HETATM   16  C   UNK     0      11.904  -3.897   0.000  0.00  0.00     0.129 A 
HETATM   17  C   UNK     0      13.237  -1.587   0.000  0.00  0.00     0.055 A 
HETATM   18  C   UNK     0      13.237  -3.127   0.000  0.00  0.00     0.054 A 
HETATM   19  C   UNK     0       5.493  -4.501   0.000  0.00  0.00     0.162 A 
HETATM   20  C   UNK     0      14.614  -0.763   0.000  0.00  0.00     0.134 A 
HETATM   21  C   UNK     0      14.614  -3.950   0.000  0.00  0.00     0.129 A 
HETATM   22  C   UNK     0      16.009  -1.555   0.000  0.00  0.00     0.042 A 
HETATM   23  C   UNK     0      16.009  -3.159   0.000  0.00  0.00     0.007 A 
HETATM   24  C   UNK     0      17.443  -0.697   0.000  0.00  0.00     0.073 A 
HETATM   25  C   UNK     0      17.443  -4.016   0.000  0.00  0.00     0.029 A 
HETATM   26  C   UNK     0      18.897  -1.521   0.000  0.00  0.00     0.051 A 
HETATM   27  C   UNK     0      18.897  -3.192   0.000  0.00  0.00     0.011 A 
ENDROOT
BRANCH   8  28
HETATM   28  O   UNK     0       9.211   0.777   0.000  0.00  0.00    -0.309 OA
BRANCH  28  29
HETATM   29  C   UNK     0       7.886   1.562   0.000  0.00  0.00     0.249 A 
HETATM   30  O   UNK     0       6.544   0.807   0.000  0.00  0.00    -0.307 OA
HETATM   31  C   UNK     0       5.219   1.593   0.000  0.00  0.00     0.101 A 
HETATM   32  C   UNK     0       5.237   3.133   0.000  0.00  0.00     0.158 A 
HETATM   33  C   UNK     0       3.877   0.838   0.000  0.00  0.00     0.060 C 
HETATM   34  O   UNK     0       3.912   3.918   0.000  0.00  0.00    -0.188 OA
HETATM   35  C   UNK     0       6.579   3.887   0.000  0.00  0.00     0.080 A 
HETATM   36  N   UNK     0       6.597   5.427   0.000  0.00  0.00    -0.103 NA
HETATM   37  C   UNK     0       7.904   3.102   0.000  0.00  0.00     0.105 A 
ENDBRANCH  28  29
ENDBRANCH   8  28
BRANCH  24  38
HETATM   38  O   UNK     0      17.426   0.843   0.000  0.00  0.00    -0.332 OA
HETATM   39  C   UNK     0      18.750   1.628   0.000  0.00  0.00     0.181 C 
ENDBRANCH  24  38
TORSDOF 3
