REMARK  4 active torsions:
REMARK  status: ('A' for Active; 'I' for Inactive)
REMARK    1  A    between atoms: C_42  and  O_45 
REMARK    2  A    between atoms: C_43  and  C_46 
REMARK    3  A    between atoms: C_46  and  C_47 
REMARK    4  A    between atoms: C_47  and  C_48 
ROOT
HETATM    1  C   UNK     0      -1.769   2.750   0.000  0.00  0.00     0.153 A 
HETATM    2  C   UNK     0      -1.769   4.271   0.000  0.00  0.00     0.089 A 
HETATM    3  C   UNK     0      -0.407   5.071   0.000  0.00  0.00     0.035 A 
HETATM    4  C   UNK     0       0.873   4.271   0.000  0.00  0.00     0.154 A 
HETATM    5  C   UNK     0       2.234   5.071   0.000  0.00  0.00     0.053 A 
HETATM    6  C   UNK     0       3.515   4.271   0.000  0.00  0.00     0.147 A 
HETATM    7  C   UNK     0       4.876   5.071   0.000  0.00  0.00     0.022 A 
HETATM    8  C   UNK     0       6.157   4.271   0.000  0.00  0.00     0.024 A 
HETATM    9  C   UNK     0       6.157   2.750   0.000  0.00  0.00     0.164 A 
HETATM   10  C   UNK     0       4.796   1.949   0.000  0.00  0.00     0.181 A 
HETATM   11  C   UNK     0       4.796   0.428   0.000  0.00  0.00     0.161 A 
HETATM   12  C   UNK     0       6.157  -0.372   0.000  0.00  0.00     0.056 A 
HETATM   13  C   UNK     0       7.518   0.428   0.000  0.00  0.00     0.140 A 
HETATM   14  O   UNK     0       7.518   1.949   0.000  0.00  0.00    -0.376 OA
HETATM   15  O   UNK     0       3.435  -0.372   0.000  0.00  0.00    -0.367 OA
HETATM   16  C   UNK     0       3.435  -1.974   0.000  0.00  0.00     0.114 A 
HETATM   17  C   UNK     0       4.796  -2.694   0.000  0.00  0.00     0.024 A 
HETATM   18  O   UNK     0       6.157  -1.974   0.000  0.00  0.00     0.000 OA
HETATM   19  C   UNK     0       7.118  -2.694   0.000  0.00  0.00     0.018 A 
HETATM   20  C   UNK     0       8.879  -0.372   0.000  0.00  0.00     0.014 A 
HETATM   21  C   UNK     0       2.074  -2.694   0.000  0.00  0.00     0.027 A 
HETATM   22  C   UNK     0       2.074  -4.295   0.000  0.00  0.00     0.023 A 
HETATM   23  C   UNK     0       0.793  -5.016   0.000  0.00  0.00     0.144 A 
HETATM   24  C   UNK     0       0.793  -6.617   0.000  0.00  0.00     0.022 A 
HETATM   25  O   UNK     0      -0.568  -4.295   0.000  0.00  0.00    -0.377 OA
HETATM   26  C   UNK     0      -1.929  -5.096   0.000  0.00  0.00     0.144 A 
HETATM   27  C   UNK     0      -3.290  -4.295   0.000  0.00  0.00     0.022 A 
HETATM   28  C   UNK     0      -1.929  -6.617   0.000  0.00  0.00     0.020 A 
HETATM   29  C   UNK     0      -3.290  -2.694   0.000  0.00  0.00     0.022 A 
HETATM   30  C   UNK     0      -1.929  -1.974   0.000  0.00  0.00     0.144 A 
HETATM   31  O   UNK     0      -1.929  -0.372   0.000  0.00  0.00    -0.377 OA
HETATM   32  C   UNK     0      -0.648  -2.694   0.000  0.00  0.00     0.020 A 
HETATM   33  C   UNK     0       0.713  -1.974   0.000  0.00  0.00     0.006 A 
HETATM   34  C   UNK     0       0.713  -0.372   0.000  0.00  0.00     0.017 A 
HETATM   35  C   UNK     0      -0.568   0.428   0.000  0.00  0.00     0.146 A 
HETATM   36  C   UNK     0      -0.568   1.949   0.000  0.00  0.00     0.041 A 
HETATM   37  C   UNK     0       1.914   0.428   0.000  0.00  0.00     0.002 C 
HETATM   38  O   UNK     0       0.873   2.750   0.000  0.00  0.00    -0.223 OA
HETATM   39  O   UNK     0       3.515   2.750   0.000  0.00  0.00    -0.373 OA
HETATM   40  O   UNK     0       4.796  -1.173   0.000  0.00  0.00     0.000 OA
HETATM   41  C   UNK     0      -3.050  -7.658   0.000  0.00  0.00     0.002 C 
HETATM   42  C   UNK     0      -3.215   4.741   0.000  0.00  0.00     0.085 A 
HETATM   43  C   UNK     0      -4.109   3.510   0.000  0.00  0.00     0.091 A 
HETATM   44  O   UNK     0      -3.215   2.280   0.000  0.00  0.00    -0.345 OA
HETATM   45  C   UNK     0       1.594  -1.333   0.000  0.00  0.00     0.004 A 
ENDROOT
BRANCH  43  46
HETATM   46  C   UNK     0      -5.691   3.510   0.000  0.00  0.00     0.088 C 
BRANCH  46  47
HETATM   47  C   UNK     0      -6.475   4.867   0.000  0.00  0.00     0.198 C 
HETATM   48  O   UNK     0      -5.695   6.220   0.000  0.00  0.00    -0.221 OA
BRANCH  47  49
HETATM   49  C   UNK     0      -8.093   4.866   0.000  0.00  0.00     0.371 C 
HETATM   50  N   UNK     0      -8.879   6.226   0.000  0.00  0.00     0.621 N 
ENDBRANCH  47  49
ENDBRANCH  46  47
ENDBRANCH  43  46
BRANCH  42  51
HETATM   51  O   UNK     0      -3.713   6.271   0.000  0.00  0.00    -0.331 OA
HETATM   52  C   UNK     0      -2.912   7.658   0.000  0.00  0.00     0.181 C 
ENDBRANCH  42  51
TORSDOF 4
