REMARK  0 active torsions:
REMARK  status: ('A' for Active; 'I' for Inactive)
ROOT
HETATM    1  O   UNK     0      14.145   3.253   0.000  0.00  0.00    -0.224 OA
HETATM    2  O   UNK     0       3.905  -3.380   0.000  0.00  0.00    -0.223 OA
HETATM    3  C   UNK     0      12.209   1.321   0.000  0.00  0.00     0.023 A 
HETATM    4  C   UNK     0      12.209  -0.219   0.000  0.00  0.00     0.016 A 
HETATM    5  C   UNK     0      10.876  -0.989   0.000  0.00  0.00     0.012 A 
HETATM    6  C   UNK     0       9.542  -0.219   0.000  0.00  0.00     0.032 A 
HETATM    7  C   UNK     0      13.666   1.790   0.000  0.00  0.00     0.152 A 
HETATM    8  C   UNK     0      10.876   2.090   0.000  0.00  0.00     0.002 A 
HETATM    9  C   UNK     0      13.666  -0.689   0.000  0.00  0.00    -0.003 A 
HETATM   10  C   UNK     0       9.542   1.321   0.000  0.00  0.00    -0.003 A 
HETATM   11  C   UNK     0      14.565   0.550   0.000  0.00  0.00     0.032 A 
HETATM   12  C   UNK     0      10.900  -2.593   0.000  0.00  0.00    -0.002 A 
HETATM   13  C   UNK     0      12.209   2.860   0.000  0.00  0.00     0.002 A 
HETATM   14  C   UNK     0       8.141  -1.000   0.000  0.00  0.00    -0.058 A 
HETATM   15  C   UNK     0       9.518  -3.406   0.000  0.00  0.00     0.021 A 
HETATM   16  C   UNK     0       8.128  -2.604   0.000  0.00  0.00    -0.050 A 
HETATM   17  C   UNK     0       6.714  -0.131   0.000  0.00  0.00     0.024 A 
HETATM   18  C   UNK     0       6.688  -3.450   0.000  0.00  0.00     0.054 A 
HETATM   19  C   UNK     0       5.254  -0.944   0.000  0.00  0.00     0.038 A 
HETATM   20  C   UNK     0       5.241  -2.615   0.000  0.00  0.00     0.157 A 
ENDROOT
TORSDOF 0
