REMARK  5 active torsions:
REMARK  status: ('A' for Active; 'I' for Inactive)
REMARK    1  A    between atoms: O_1  and  C_16 
REMARK    2  A    between atoms: O_1  and  C_22 
REMARK    3  A    between atoms: O_11  and  C_36 
REMARK    4  A    between atoms: O_12  and  C_37 
REMARK    5  A    between atoms: C_17  and  C_23 
ROOT
HETATM    1  O   UNK     0      11.087   1.217   0.000  0.00  0.00    -0.329 OA
HETATM    2  O   UNK     0      13.217  -0.499   0.000  0.00  0.00    -0.190 OA
HETATM    3  O   UNK     0       5.312  -6.203   0.000  0.00  0.00    -0.304 OA
HETATM    4  O   UNK     0       7.548  -7.494   0.000  0.00  0.00    -0.304 OA
HETATM    5  C   UNK     0       9.242  -0.438   0.000  0.00  0.00     0.099 A 
HETATM    6  C   UNK     0      10.576  -1.208   0.000  0.00  0.00     0.104 A 
HETATM    7  C   UNK     0       7.908  -1.208   0.000  0.00  0.00     0.072 A 
HETATM    8  C   UNK     0      10.576  -2.748   0.000  0.00  0.00    -0.034 A 
HETATM    9  C   UNK     0       7.908  -2.748   0.000  0.00  0.00    -0.001 A 
HETATM   10  C   UNK     0       9.242  -3.518   0.000  0.00  0.00    -0.022 A 
HETATM   11  C   UNK     0       9.564   1.058   0.000  0.00  0.00     0.145 A 
HETATM   12  C   UNK     0      11.711  -0.181   0.000  0.00  0.00     0.267 A 
HETATM   13  C   UNK     0       6.507  -3.529   0.000  0.00  0.00     0.080 A 
HETATM   14  C   UNK     0       9.267  -5.122   0.000  0.00  0.00     0.078 A 
HETATM   15  C   UNK     0       6.494  -5.133   0.000  0.00  0.00     0.097 A 
HETATM   16  C   UNK     0       7.884  -5.935   0.000  0.00  0.00     0.097 A 
HETATM   17  C   UNK     0       5.962  -7.659   0.000  0.00  0.00     0.303 A 
ENDROOT
BRANCH   7  18
HETATM   18  O   UNK     0       6.574  -0.438   0.000  0.00  0.00    -0.289 OA
BRANCH  18  19
HETATM   19  C   UNK     0       6.574   1.102   0.000  0.00  0.00     0.226 A 
HETATM   20  O   UNK     0       7.908   1.872   0.000  0.00  0.00    -0.316 OA
HETATM   21  C   UNK     0       7.908   3.412   0.000  0.00  0.00     0.208 A 
HETATM   22  C   UNK     0       6.574   4.182   0.000  0.00  0.00     0.221 A 
HETATM   23  C   UNK     0       9.309   4.192   0.000  0.00  0.00     0.168 A 
HETATM   24  O   UNK     0       6.550   5.786   0.000  0.00  0.00    -0.335 OA
HETATM   25  C   UNK     0       5.241   3.412   0.000  0.00  0.00     0.157 A 
HETATM   26  C   UNK     0       7.933   6.598   0.000  0.00  0.00     0.235 A 
HETATM   27  O   UNK     0       9.322   5.796   0.000  0.00  0.00    -0.329 OA
HETATM   28  C   UNK     0       7.927   8.138   0.000  0.00  0.00     0.067 C 
HETATM   29  O   UNK     0       3.907   4.182   0.000  0.00  0.00    -0.191 OA
HETATM   30  C   UNK     0       5.241   1.872   0.000  0.00  0.00     0.200 A 
HETATM   31  O   UNK     0       3.907   1.102   0.000  0.00  0.00    -0.184 OA
ENDBRANCH  18  19
ENDBRANCH   7  18
BRANCH   8  32
HETATM   32  C   UNK     0      11.909  -3.518   0.000  0.00  0.00    -0.036 A 
HETATM   33  C   UNK     0      13.243  -2.748   0.000  0.00  0.00     0.075 A 
HETATM   34  C   UNK     0      14.577  -3.518   0.000  0.00  0.00     0.103 A 
HETATM   35  C   UNK     0      14.577  -5.058   0.000  0.00  0.00     0.168 A 
HETATM   36  O   UNK     0      15.910  -5.828   0.000  0.00  0.00    -0.187 OA
HETATM   37  C   UNK     0      13.243  -5.828   0.000  0.00  0.00     0.103 A 
HETATM   38  C   UNK     0      11.909  -5.058   0.000  0.00  0.00     0.075 A 
BRANCH  34  39
HETATM   39  O   UNK     0      15.910  -2.748   0.000  0.00  0.00    -0.330 OA
HETATM   40  C   UNK     0      17.244  -3.518   0.000  0.00  0.00     0.181 C 
ENDBRANCH  34  39
BRANCH  37  41
HETATM   41  O   UNK     0      13.243  -7.368   0.000  0.00  0.00    -0.330 OA
HETATM   42  C   UNK     0      11.909  -8.138   0.000  0.00  0.00     0.181 C 
ENDBRANCH  37  41
ENDBRANCH   8  32
TORSDOF 5
