REMARK  3 active torsions:
REMARK  status: ('A' for Active; 'I' for Inactive)
REMARK    1  A    between atoms: C_24  and  C_29 
REMARK    2  A    between atoms: C_32  and  O_38 
REMARK    3  A    between atoms: C_65  and  C_66 
ROOT
HETATM    1  N   UNK     0      -6.654   5.666   0.000  0.00  0.00    -0.328 N 
HETATM    2  C   UNK     0      -5.344   6.437   0.000  0.00  0.00     0.198 A 
HETATM    3  C   UNK     0      -6.654   4.126   0.000  0.00  0.00     0.227 C 
HETATM    4  C   UNK     0      -8.040   6.437   0.000  0.00  0.00     0.103 A 
HETATM    5  C   UNK     0      -4.035   5.666   0.000  0.00  0.00     0.283 C 
HETATM    6  C   UNK     0      -5.344   7.977   0.000  0.00  0.00     0.023 A 
HETATM    7  C   UNK     0      -8.040   3.356   0.000  0.00  0.00     0.326 A 
HETATM    8  O   UNK     0      -5.344   3.356   0.000  0.00  0.00    -0.171 OA
HETATM    9  C   UNK     0      -8.040   7.977   0.000  0.00  0.00     0.024 A 
HETATM   10  O   UNK     0      -2.726   6.437   0.000  0.00  0.00    -0.308 OA
HETATM   11  O   UNK     0      -4.035   4.434   0.000  0.00  0.00    -0.263 OA
HETATM   12  C   UNK     0      -6.654   8.824   0.000  0.00  0.00     0.004 A 
HETATM   13  C   UNK     0      -8.040   1.816   0.000  0.00  0.00     0.248 A 
HETATM   14  O   UNK     0      -9.349   4.203   0.000  0.00  0.00    -0.181 OA
HETATM   15  C   UNK     0      -1.340   5.666   0.000  0.00  0.00     0.182 A 
HETATM   16  O   UNK     0      -6.731   1.046   0.000  0.00  0.00    -0.338 OA
HETATM   17  C   UNK     0      -9.426   1.046   0.000  0.00  0.00     0.057 A 
HETATM   18  O   UNK     0      -6.801   2.568   0.000  0.00  0.00    -0.298 OA
HETATM   19  C   UNK     0      -0.031   6.437   0.000  0.00  0.00    -0.007 A 
HETATM   20  C   UNK     0      -1.340   4.126   0.000  0.00  0.00     0.075 A 
HETATM   21  C   UNK     0      -6.545  -0.184   0.000  0.00  0.00     0.173 A 
HETATM   22  C   UNK     0      -9.426  -0.417   0.000  0.00  0.00     0.007 A 
HETATM   23  C   UNK     0     -10.735   1.893   0.000  0.00  0.00     0.005 C 
HETATM   24  C   UNK     0       1.355   5.666   0.000  0.00  0.00     0.065 A 
HETATM   25  C   UNK     0      -0.031   7.977   0.000  0.00  0.00     0.030 C 
HETATM   26  C   UNK     0      -0.031   3.356   0.000  0.00  0.00     0.072 A 
HETATM   27  C   UNK     0      -5.421  -1.264   0.000  0.00  0.00     0.017 C 
HETATM   28  C   UNK     0      -8.040  -1.264   0.000  0.00  0.00     0.025 A 
HETATM   29  C   UNK     0      -0.031   1.816   0.000  0.00  0.00    -0.021 C 
HETATM   30  O   UNK     0       1.355   4.203   0.000  0.00  0.00    -0.317 OA
HETATM   31  C   UNK     0      -5.421  -2.805   0.000  0.00  0.00     0.084 C 
HETATM   32  C   UNK     0       1.355   1.046   0.000  0.00  0.00     0.048 C 
HETATM   33  C   UNK     0      -1.340   1.046   0.000  0.00  0.00     0.028 C 
HETATM   34  C   UNK     0      -4.112  -3.575   0.000  0.00  0.00    -0.022 C 
HETATM   35  C   UNK     0       1.355  -0.417   0.000  0.00  0.00    -0.012 C 
HETATM   36  C   UNK     0      -4.112  -5.115   0.000  0.00  0.00     0.024 C 
HETATM   37  C   UNK     0      -2.726  -2.805   0.000  0.00  0.00     0.028 C 
HETATM   38  C   UNK     0       2.665  -1.187   0.000  0.00  0.00     0.148 C 
HETATM   39  C   UNK     0      -0.031  -1.187   0.000  0.00  0.00     0.029 C 
HETATM   40  C   UNK     0      -2.803  -5.885   0.000  0.00  0.00     0.005 C 
HETATM   41  C   UNK     0       2.665  -2.727   0.000  0.00  0.00     0.144 A 
HETATM   42  O   UNK     0       3.974  -0.417   0.000  0.00  0.00    -0.189 OA
HETATM   43  C   UNK     0      -2.803  -7.425   0.000  0.00  0.00     0.005 C 
HETATM   44  C   UNK     0       3.974  -3.497   0.000  0.00  0.00     0.151 A 
HETATM   45  O   UNK     0       1.278  -3.497   0.000  0.00  0.00    -0.322 OA
HETATM   46  C   UNK     0      -1.417  -8.195   0.000  0.00  0.00     0.026 C 
HETATM   47  C   UNK     0       3.974  -5.038   0.000  0.00  0.00     0.004 A 
HETATM   48  O   UNK     0       5.283  -2.727   0.000  0.00  0.00    -0.188 OA
HETATM   49  C   UNK     0       1.278  -5.038   0.000  0.00  0.00     0.175 A 
HETATM   50  C   UNK     0      -0.108  -7.425   0.000  0.00  0.00    -0.031 C 
HETATM   51  C   UNK     0       2.665  -5.808   0.000  0.00  0.00     0.002 A 
HETATM   52  C   UNK     0       5.283  -5.808   0.000  0.00  0.00     0.033 C 
HETATM   53  C   UNK     0       1.432  -7.425   0.000  0.00  0.00    -0.028 C 
HETATM   54  C   UNK     0       1.817  -8.888   0.000  0.00  0.00     0.030 C 
ENDROOT
BRANCH  24  55
HETATM   55  C   UNK     0       2.665   6.437   0.000  0.00  0.00     0.072 A 
HETATM   56  C   UNK     0       3.974   5.666   0.000  0.00  0.00     0.053 A 
HETATM   57  C   UNK     0       5.283   6.437   0.000  0.00  0.00     0.096 A 
HETATM   58  C   UNK     0       5.283   7.977   0.000  0.00  0.00     0.096 A 
HETATM   59  O   UNK     0       6.669   5.666   0.000  0.00  0.00    -0.306 OA
HETATM   60  C   UNK     0       3.974   8.747   0.000  0.00  0.00     0.053 A 
HETATM   61  O   UNK     0       6.669   8.824   0.000  0.00  0.00    -0.309 OA
HETATM   62  C   UNK     0       2.665   7.977   0.000  0.00  0.00     0.007 A 
HETATM   63  C   UNK     0       8.042   8.076   0.000  0.00  0.00     0.135 A 
HETATM   64  C   UNK     0       7.990   6.458   0.000  0.00  0.00     0.145 A 
BRANCH  63  65
HETATM   65  C   UNK     0       9.371   8.888   0.000  0.00  0.00     0.235 C 
HETATM   66  O   UNK     0      10.735   8.146   0.000  0.00  0.00    -0.213 OA
ENDBRANCH  63  65
ENDBRANCH  24  55
BRANCH  31  67
HETATM   67  O   UNK     0      -6.731  -3.575   0.000  0.00  0.00    -0.329 OA
HETATM   68  C   UNK     0      -6.731  -5.115   0.000  0.00  0.00     0.181 C 
ENDBRANCH  31  67
TORSDOF 3
