REMARK  0 active torsions:
REMARK  status: ('A' for Active; 'I' for Inactive)
ROOT
HETATM    1  O   UNK     0      13.320   4.100   0.000  0.00  0.00    -0.223 OA
HETATM    2  O   UNK     0       3.080  -2.534   0.000  0.00  0.00    -0.223 OA
HETATM    3  C   UNK     0      11.385   0.627   0.000  0.00  0.00     0.020 A 
HETATM    4  C   UNK     0      10.051  -0.143   0.000  0.00  0.00     0.016 A 
HETATM    5  C   UNK     0      11.385   2.167   0.000  0.00  0.00     0.041 A 
HETATM    6  C   UNK     0       8.717   0.627   0.000  0.00  0.00     0.041 A 
HETATM    7  C   UNK     0      10.051   2.937   0.000  0.00  0.00    -0.051 A 
HETATM    8  C   UNK     0       8.717   2.167   0.000  0.00  0.00    -0.058 A 
HETATM    9  C   UNK     0       7.316  -0.154   0.000  0.00  0.00     0.016 A 
HETATM   10  C   UNK     0      12.842   0.158   0.000  0.00  0.00    -0.003 A 
HETATM   11  C   UNK     0      10.076  -1.747   0.000  0.00  0.00     0.015 A 
HETATM   12  C   UNK     0      12.842   2.636   0.000  0.00  0.00     0.155 A 
HETATM   13  C   UNK     0      13.740   1.397   0.000  0.00  0.00     0.033 A 
HETATM   14  C   UNK     0      11.385   3.707   0.000  0.00  0.00     0.027 A 
HETATM   15  C   UNK     0       7.304  -1.758   0.000  0.00  0.00    -0.050 A 
HETATM   16  C   UNK     0       8.693  -2.560   0.000  0.00  0.00    -0.052 A 
HETATM   17  C   UNK     0       7.328   1.386   0.000  0.00  0.00     0.016 A 
HETATM   18  C   UNK     0       5.889   0.715   0.000  0.00  0.00     0.010 A 
HETATM   19  C   UNK     0       5.863  -2.604   0.000  0.00  0.00     0.054 A 
HETATM   20  C   UNK     0       4.429  -0.098   0.000  0.00  0.00     0.034 A 
HETATM   21  C   UNK     0       8.699  -4.100   0.000  0.00  0.00     0.026 C 
HETATM   22  C   UNK     0       4.416  -1.769   0.000  0.00  0.00     0.156 A 
ENDROOT
TORSDOF 0
