REMARK  2 active torsions:
REMARK  status: ('A' for Active; 'I' for Inactive)
REMARK    1  A    between atoms: N_7  and  C_10 
REMARK    2  A    between atoms: C_12  and  C_13 
ROOT
HETATM    1  F   UNK     0       8.415   3.654   0.000  0.00  0.00    -0.203 F 
HETATM    2  O   UNK     0       3.080   0.574   0.000  0.00  0.00    -0.149 OA
HETATM    3  O   UNK     0       5.747   5.194   0.000  0.00  0.00    -0.167 OA
HETATM    4  N   UNK     0       5.747   0.574   0.000  0.00  0.00    -0.269 N 
HETATM    5  N   UNK     0       4.414   2.884   0.000  0.00  0.00    -0.176 NA
HETATM    6  C   UNK     0       4.414   1.344   0.000  0.00  0.00     0.285 A 
HETATM    7  C   UNK     0       7.081   1.344   0.000  0.00  0.00     0.172 A 
HETATM    8  C   UNK     0       7.081   2.884   0.000  0.00  0.00     0.184 A 
HETATM    9  C   UNK     0       5.747   3.654   0.000  0.00  0.00     0.241 A 
ENDROOT
BRANCH   4  10
HETATM   10  C   UNK     0       5.747  -0.966   0.000  0.00  0.00     0.149 A 
HETATM   11  O   UNK     0       6.993  -1.872   0.000  0.00  0.00    -0.294 OA
HETATM   12  C   UNK     0       6.517  -3.336   0.000  0.00  0.00     0.134 A 
HETATM   13  C   UNK     0       4.977  -3.336   0.000  0.00  0.00     0.138 A 
HETATM   14  O   UNK     0       4.072  -4.582   0.000  0.00  0.00    -0.193 OA
HETATM   15  C   UNK     0       4.501  -1.872   0.000  0.00  0.00     0.126 A 
BRANCH  12  16
HETATM   16  C   UNK     0       7.423  -4.582   0.000  0.00  0.00     0.235 C 
HETATM   17  O   UNK     0       8.954  -4.421   0.000  0.00  0.00    -0.213 OA
ENDBRANCH  12  16
ENDBRANCH   4  10
TORSDOF 2
