REMARK  0 active torsions:
REMARK  status: ('A' for Active; 'I' for Inactive)
ROOT
HETATM    1  F   UNK     0       8.415   2.017   0.000  0.00  0.00    -0.203 F 
HETATM    2  O   UNK     0       8.415  -1.063   0.000  0.00  0.00    -0.167 OA
HETATM    3  O   UNK     0       3.080  -1.063   0.000  0.00  0.00    -0.147 OA
HETATM    4  N   UNK     0       5.748  -1.063   0.000  0.00  0.00    -0.175 NA
HETATM    5  N   UNK     0       4.414   1.247   0.000  0.00  0.00    -0.222 NA
HETATM    6  C   UNK     0       7.081  -0.293   0.000  0.00  0.00     0.241 A 
HETATM    7  C   UNK     0       4.414  -0.293   0.000  0.00  0.00     0.298 A 
HETATM    8  C   UNK     0       7.081   1.247   0.000  0.00  0.00     0.186 A 
HETATM    9  C   UNK     0       5.748   2.017   0.000  0.00  0.00     0.189 A 
ENDROOT
TORSDOF 0
