REMARK  15 active torsions:
REMARK  status: ('A' for Active; 'I' for Inactive)
REMARK    1  A    between atoms: C_9  and  C_19 
REMARK    2  A    between atoms: C_19  and  C_20 
REMARK    3  A    between atoms: C_20  and  C_21 
REMARK    4  A    between atoms: C_21  and  C_22 
REMARK    5  A    between atoms: C_22  and  C_23 
REMARK    6  A    between atoms: C_23  and  C_24 
REMARK    7  A    between atoms: C_24  and  C_25 
REMARK    8  A    between atoms: C_25  and  C_26 
REMARK    9  A    between atoms: C_26  and  C_27 
REMARK   10  A    between atoms: C_27  and  S_28 
REMARK   11  A    between atoms: S_28  and  C_30 
REMARK   12  A    between atoms: C_30  and  C_31 
REMARK   13  A    between atoms: C_31  and  C_32 
REMARK   14  A    between atoms: C_32  and  C_33 
REMARK   15  A    between atoms: C_33  and  C_34 
ROOT
HETATM    1  C   UNK     0       1.335  -0.276   0.000  0.00  0.00    -0.000 C 
ENDROOT
BRANCH   1   2
HETATM    2  C   UNK     0       0.001   0.493   0.000  0.00  0.00    -0.002 A 
HETATM    3  C   UNK     0      -1.332  -0.276   0.000  0.00  0.00     0.021 A 
HETATM    4  C   UNK     0      -2.666   0.493   0.000  0.00  0.00    -0.050 A 
HETATM    5  C   UNK     0      -4.000  -0.276   0.000  0.00  0.00     0.054 A 
HETATM    6  C   UNK     0      -2.666   2.034   0.000  0.00  0.00    -0.058 A 
HETATM    7  C   UNK     0      -5.334   0.493   0.000  0.00  0.00     0.157 A 
HETATM    8  C   UNK     0      -5.334   2.034   0.000  0.00  0.00     0.038 A 
HETATM    9  O   UNK     0      -6.667  -0.276   0.000  0.00  0.00    -0.223 OA
HETATM   10  C   UNK     0      -4.000   2.804   0.000  0.00  0.00     0.024 A 
HETATM   11  C   UNK     0      -1.332   2.804   0.000  0.00  0.00     0.032 A 
HETATM   12  C   UNK     0      -1.332   4.344   0.000  0.00  0.00    -0.003 A 
HETATM   13  C   UNK     0       0.001   2.034   0.000  0.00  0.00     0.012 A 
HETATM   14  C   UNK     0       0.001   5.114   0.000  0.00  0.00     0.002 A 
HETATM   15  C   UNK     0       1.335   4.344   0.000  0.00  0.00     0.023 A 
HETATM   16  C   UNK     0       1.335   5.884   0.000  0.00  0.00     0.002 A 
HETATM   17  C   UNK     0       1.335   2.804   0.000  0.00  0.00     0.016 A 
HETATM   18  C   UNK     0       2.800   4.820   0.000  0.00  0.00     0.152 A 
HETATM   19  C   UNK     0       2.800   2.328   0.000  0.00  0.00    -0.003 A 
HETATM   20  C   UNK     0       3.705   3.574   0.000  0.00  0.00     0.032 A 
HETATM   21  O   UNK     0       3.198   6.307   0.000  0.00  0.00    -0.224 OA
ENDBRANCH   1   2
BRANCH   1  22
HETATM   22  C   UNK     0       2.669   0.493   0.000  0.00  0.00    -0.000 C 
BRANCH  22  23
HETATM   23  C   UNK     0       4.002  -0.276   0.000  0.00  0.00    -0.000 C 
BRANCH  23  24
HETATM   24  C   UNK     0       5.336   0.493   0.000  0.00  0.00     0.000 C 
BRANCH  24  25
HETATM   25  C   UNK     0       6.667  -0.277   0.000  0.00  0.00     0.000 C 
BRANCH  25  26
HETATM   26  C   UNK     0       6.653  -1.817   0.000  0.00  0.00     0.000 C 
BRANCH  26  27
HETATM   27  C   UNK     0       5.312  -2.574   0.000  0.00  0.00     0.001 C 
BRANCH  27  28
HETATM   28  C   UNK     0       5.298  -4.114   0.000  0.00  0.00     0.014 C 
BRANCH  28  29
HETATM   29  C   UNK     0       3.957  -4.872   0.000  0.00  0.00     0.092 C 
BRANCH  29  30
HETATM   30  S   UNK     0       2.633  -4.084   0.000  0.00  0.00     0.042 S 
HETATM   31  O   UNK     0       2.654  -2.544   0.000  0.00  0.00    -0.256 OA
BRANCH  30  32
HETATM   32  C   UNK     0       1.290  -4.837   0.000  0.00  0.00     0.092 C 
BRANCH  32  33
HETATM   33  C   UNK     0      -0.033  -4.050   0.000  0.00  0.00     0.020 C 
BRANCH  33  34
HETATM   34  C   UNK     0      -1.377  -4.802   0.000  0.00  0.00     0.077 C 
BRANCH  34  35
HETATM   35  C   UNK     0      -2.701  -4.015   0.000  0.00  0.00     0.349 C 
HETATM   36  F   UNK     0      -1.914  -2.691   0.000  0.00  0.00    -0.195 F 
HETATM   37  F   UNK     0      -3.453  -2.671   0.000  0.00  0.00    -0.195 F 
BRANCH  35  38
HETATM   38  C   UNK     0      -4.044  -4.767   0.000  0.00  0.00     0.455 C 
HETATM   39  F   UNK     0      -5.368  -3.980   0.000  0.00  0.00    -0.165 F 
HETATM   40  F   UNK     0      -4.065  -6.307   0.000  0.00  0.00    -0.165 F 
HETATM   41  F   UNK     0      -5.404  -5.495   0.000  0.00  0.00    -0.165 F 
ENDBRANCH  35  38
ENDBRANCH  34  35
ENDBRANCH  33  34
ENDBRANCH  32  33
ENDBRANCH  30  32
ENDBRANCH  29  30
ENDBRANCH  28  29
ENDBRANCH  27  28
ENDBRANCH  26  27
ENDBRANCH  25  26
ENDBRANCH  24  25
ENDBRANCH  23  24
ENDBRANCH  22  23
ENDBRANCH   1  22
TORSDOF 15
