REMARK  2 active torsions:
REMARK  status: ('A' for Active; 'I' for Inactive)
REMARK    1  A    between atoms: N_7  and  C_13 
REMARK    2  A    between atoms: C_12  and  C_14 
ROOT
HETATM    1  F   UNK     0       9.558  -2.456   0.000  0.00  0.00    -0.189 F 
HETATM    2  F   UNK     0       8.999  -0.734   0.000  0.00  0.00    -0.189 F 
HETATM    3  O   UNK     0       5.602  -1.980   0.000  0.00  0.00    -0.289 OA
HETATM    4  O   UNK     0       8.523  -4.690   0.000  0.00  0.00    -0.187 OA
HETATM    5  C   UNK     0       7.618  -3.445   0.000  0.00  0.00     0.197 A 
HETATM    6  C   UNK     0       8.094  -1.980   0.000  0.00  0.00     0.361 A 
HETATM    7  C   UNK     0       6.078  -3.445   0.000  0.00  0.00     0.139 A 
HETATM    8  C   UNK     0       6.848  -1.075   0.000  0.00  0.00     0.211 A 
ENDROOT
BRANCH   8   9
HETATM    9  N   UNK     0       6.848   0.465   0.000  0.00  0.00    -0.271 N 
HETATM   10  C   UNK     0       8.182   1.235   0.000  0.00  0.00     0.119 A 
HETATM   11  C   UNK     0       8.182   2.775   0.000  0.00  0.00     0.085 A 
HETATM   12  C   UNK     0       6.848   3.545   0.000  0.00  0.00     0.134 A 
HETATM   13  N   UNK     0       5.514   2.775   0.000  0.00  0.00    -0.195 NA
HETATM   14  N   UNK     0       6.848   5.085   0.000  0.00  0.00    -0.084 NA
HETATM   15  C   UNK     0       5.514   1.235   0.000  0.00  0.00     0.284 A 
HETATM   16  O   UNK     0       4.181   0.465   0.000  0.00  0.00    -0.149 OA
ENDBRANCH   8   9
BRANCH   7  17
HETATM   17  C   UNK     0       5.173  -4.690   0.000  0.00  0.00     0.235 C 
HETATM   18  O   UNK     0       3.641  -4.529   0.000  0.00  0.00    -0.213 OA
ENDBRANCH   7  17
TORSDOF 2
