REMARK  9 active torsions:
REMARK  status: ('A' for Active; 'I' for Inactive)
REMARK    1  A    between atoms: C_2  and  C_3 
REMARK    2  A    between atoms: C_4  and  N_34 
REMARK    3  A    between atoms: C_6  and  N_12 
REMARK    4  A    between atoms: C_7  and  C_9 
REMARK    5  A    between atoms: N_12  and  C_13 
REMARK    6  A    between atoms: C_16  and  N_21 
REMARK    7  A    between atoms: C_17  and  O_19 
REMARK    8  A    between atoms: C_24  and  N_27 
REMARK    9  A    between atoms: N_34  and  C_35 
ROOT
HETATM    1  C   UNK     0       5.335  -7.700   0.000  0.00  0.00     0.045 A 
HETATM    2  C   UNK     0       6.668  -6.930   0.000  0.00  0.00     0.048 A 
HETATM    3  C   UNK     0       8.002  -7.700   0.000  0.00  0.00     0.051 A 
HETATM    4  C   UNK     0       8.002  -9.240   0.000  0.00  0.00     0.052 A 
HETATM    5  C   UNK     0       6.668 -10.010   0.000  0.00  0.00     0.089 A 
HETATM    6  C   UNK     0       5.335  -9.240   0.000  0.00  0.00     0.093 A 
ENDROOT
BRANCH   1   7
HETATM    7  N   UNK     0       4.001  -6.930   0.000  0.00  0.00    -0.234 NA
BRANCH   7   8
HETATM    8  C   UNK     0       4.001  -5.390   0.000  0.00  0.00     0.184 A 
HETATM    9  N   UNK     0       5.335  -4.620   0.000  0.00  0.00    -0.205 NA
HETATM   10  C   UNK     0       5.335  -3.080   0.000  0.00  0.00     0.177 A 
HETATM   11  C   UNK     0       4.001  -2.310   0.000  0.00  0.00     0.095 A 
HETATM   12  N   UNK     0       2.667  -3.080   0.000  0.00  0.00    -0.240 NA
HETATM   13  C   UNK     0       2.667  -4.620   0.000  0.00  0.00     0.155 A 
BRANCH  10  14
HETATM   14  N   UNK     0       6.668  -2.310   0.000  0.00  0.00    -0.234 NA
BRANCH  14  15
HETATM   15  C   UNK     0       8.002  -3.080   0.000  0.00  0.00     0.044 A 
HETATM   16  C   UNK     0       9.336  -2.310   0.000  0.00  0.00     0.074 A 
HETATM   17  C   UNK     0      10.669  -3.080   0.000  0.00  0.00     0.148 A 
HETATM   18  O   UNK     0      10.669  -4.620   0.000  0.00  0.00    -0.353 OA
HETATM   19  C   UNK     0       9.336  -5.390   0.000  0.00  0.00     0.148 A 
HETATM   20  C   UNK     0       8.002  -4.620   0.000  0.00  0.00     0.074 A 
ENDBRANCH  14  15
ENDBRANCH  10  14
BRANCH  11  21
HETATM   21  C   UNK     0       4.001  -0.770   0.000  0.00  0.00     0.049 C 
HETATM   22  C   UNK     0       5.335  -0.000   0.000  0.00  0.00     0.007 C 
ENDBRANCH  11  21
BRANCH  13  23
HETATM   23  C   UNK     0       1.334  -5.390   0.000  0.00  0.00     0.221 C 
HETATM   24  O   UNK     0       0.000  -4.620   0.000  0.00  0.00    -0.173 OA
HETATM   25  N   UNK     0       1.334  -6.930   0.000  0.00  0.00    -0.069 NA
ENDBRANCH  13  23
ENDBRANCH   7   8
ENDBRANCH   1   7
BRANCH   5  26
HETATM   26  O   UNK     0       6.668 -11.550   0.000  0.00  0.00    -0.331 OA
HETATM   27  C   UNK     0       5.335 -12.320   0.000  0.00  0.00     0.181 C 
ENDBRANCH   5  26
BRANCH   4  28
HETATM   28  N   UNK     0       9.336 -10.010   0.000  0.00  0.00    -0.349 N 
HETATM   29  C   UNK     0      10.669  -9.240   0.000  0.00  0.00     0.107 A 
HETATM   30  C   UNK     0      12.003 -10.010   0.000  0.00  0.00     0.063 A 
HETATM   31  C   UNK     0      12.003 -11.550   0.000  0.00  0.00     0.014 A 
HETATM   32  C   UNK     0      10.669 -12.320   0.000  0.00  0.00     0.063 A 
HETATM   33  C   UNK     0       9.336 -11.550   0.000  0.00  0.00     0.107 A 
BRANCH  31  34
HETATM   34  N   UNK     0      13.337 -12.320   0.000  0.00  0.00    -0.351 N 
HETATM   35  C   UNK     0      14.670 -11.550   0.000  0.00  0.00     0.125 A 
HETATM   36  C   UNK     0      16.004 -12.320   0.000  0.00  0.00     0.122 A 
HETATM   37  N   UNK     0      16.004 -13.860   0.000  0.00  0.00    -0.364 N 
HETATM   38  C   UNK     0      14.670 -14.630   0.000  0.00  0.00     0.122 A 
HETATM   39  C   UNK     0      17.338 -14.630   0.000  0.00  0.00     0.121 C 
HETATM   40  C   UNK     0      13.337 -13.860   0.000  0.00  0.00     0.125 A 
ENDBRANCH  31  34
ENDBRANCH   4  28
TORSDOF 9
