REMARK  3 active torsions:
REMARK  status: ('A' for Active; 'I' for Inactive)
REMARK       I    between atoms: N_1  and  C_2 
REMARK    1  A    between atoms: N_1  and  C_13 
REMARK       I    between atoms: C_2  and  N_4 
REMARK    2  A    between atoms: N_4  and  C_5 
REMARK    3  A    between atoms: C_15  and  C_20 
ROOT
HETATM    1  C   UNK     0       3.675   2.669   0.000  0.00  0.00     0.041 A 
HETATM    2  C   UNK     0       4.443   4.004   0.000  0.00  0.00     0.043 A 
HETATM    3  C   UNK     0       5.981   4.004   0.000  0.00  0.00     0.020 A 
HETATM    4  C   UNK     0       6.750   2.669   0.000  0.00  0.00     0.078 A 
HETATM    5  C   UNK     0       5.981   1.335   0.000  0.00  0.00     0.020 A 
HETATM    6  C   UNK     0       4.443   1.335   0.000  0.00  0.00     0.043 A 
HETATM    7  C   UNK     0       8.288   2.669   0.000  0.00  0.00    -0.007 C 
HETATM    8  N   UNK     0       9.834   2.669   0.000  0.00  0.00    -0.101 N 
ENDROOT
BRANCH   1   9
HETATM    9  N   UNK     0       2.137   2.669   0.000  0.00  0.00    -0.212 NA
HETATM   10  C   UNK     0       1.368   1.335   0.000  0.00  0.00     0.299 C 
HETATM   11  N   UNK     0      -0.178   1.335   0.000  0.00  0.00    -0.212 NA
HETATM   12  O   UNK     0       2.137   0.000   0.000  0.00  0.00    -0.147 OA
BRANCH  11  13
HETATM   13  C   UNK     0      -0.947   0.000   0.000  0.00  0.00     0.048 A 
HETATM   14  C   UNK     0      -2.485   0.000   0.000  0.00  0.00     0.088 A 
HETATM   15  C   UNK     0      -3.254  -1.335   0.000  0.00  0.00     0.075 A 
HETATM   16  N   UNK     0      -2.485  -2.669   0.000  0.00  0.00    -0.346 N 
HETATM   17  C   UNK     0      -0.947  -2.669   0.000  0.00  0.00     0.107 A 
HETATM   18  C   UNK     0      -3.254  -4.004   0.000  0.00  0.00     0.126 C 
HETATM   19  C   UNK     0      -0.178  -1.335   0.000  0.00  0.00     0.066 A 
BRANCH  15  20
HETATM   20  C   UNK     0      -4.792  -1.335   0.000  0.00  0.00     0.174 A 
HETATM   21  N   UNK     0      -5.702  -0.089   0.000  0.00  0.00    -0.229 NA
HETATM   22  C   UNK     0      -7.165  -0.565   0.000  0.00  0.00     0.074 A 
HETATM   23  C   UNK     0      -7.165  -2.103   0.000  0.00  0.00     0.074 A 
HETATM   24  C   UNK     0      -8.499   0.203   0.000  0.00  0.00     0.047 A 
HETATM   25  N   UNK     0      -5.702  -2.580   0.000  0.00  0.00    -0.229 NA
HETATM   26  C   UNK     0      -8.499  -2.872   0.000  0.00  0.00     0.047 A 
HETATM   27  C   UNK     0      -9.834  -2.103   0.000  0.00  0.00     0.007 A 
HETATM   28  C   UNK     0      -9.834  -0.565   0.000  0.00  0.00     0.007 A 
ENDBRANCH  15  20
ENDBRANCH  11  13
ENDBRANCH   1   9
TORSDOF 3
