REMARK  29 active torsions:
REMARK  status: ('A' for Active; 'I' for Inactive)
REMARK    1  A    between atoms: O_4  and  C_51 
REMARK    2  A    between atoms: O_4  and  C_54 
REMARK       I    between atoms: N_15  and  C_37 
REMARK    3  A    between atoms: N_16  and  C_38 
REMARK    4  A    between atoms: N_16  and  C_43 
REMARK    5  A    between atoms: N_17  and  N_19 
REMARK       I    between atoms: N_17  and  C_39 
REMARK    6  A    between atoms: N_18  and  C_42 
REMARK       I    between atoms: N_18  and  C_49 
REMARK       I    between atoms: N_19  and  C_52 
REMARK    7  A    between atoms: N_20  and  C_46 
REMARK       I    between atoms: N_20  and  C_57 
REMARK    8  A    between atoms: N_21  and  C_50 
REMARK    9  A    between atoms: N_21  and  C_56 
REMARK   10  A    between atoms: N_23  and  C_59 
REMARK       I    between atoms: N_23  and  C_64 
REMARK   11  A    between atoms: N_25  and  C_55 
REMARK       I    between atoms: N_25  and  C_74 
REMARK   12  A    between atoms: N_26  and  C_60 
REMARK       I    between atoms: N_26  and  C_68 
REMARK   13  A    between atoms: N_27  and  C_67 
REMARK       I    between atoms: N_27  and  C_73 
REMARK   14  A    between atoms: C_33  and  C_39 
REMARK   15  A    between atoms: C_37  and  C_38 
REMARK   16  A    between atoms: C_38  and  C_40 
REMARK   17  A    between atoms: C_40  and  C_41 
REMARK   18  A    between atoms: C_41  and  C_46 
REMARK   19  A    between atoms: C_49  and  C_50 
REMARK   20  A    between atoms: C_50  and  C_51 
REMARK   21  A    between atoms: C_53  and  C_64 
REMARK   22  A    between atoms: C_59  and  C_66 
REMARK   23  A    between atoms: C_59  and  C_68 
REMARK   24  A    between atoms: C_60  and  C_63 
REMARK   25  A    between atoms: C_60  and  C_73 
REMARK   26  A    between atoms: C_63  and  C_72 
REMARK   27  A    between atoms: C_66  and  C_77 
REMARK   28  A    between atoms: C_67  and  C_74 
REMARK   29  A    between atoms: C_67  and  C_80 
ROOT
HETATM    1  O   UNK     0      19.331   2.270   0.000  0.00  0.00    -0.293 OA
HETATM    2  O   UNK     0      23.302   5.833   0.000  0.00  0.00    -0.223 OA
HETATM    3  C   UNK     0      16.796   3.099   0.000  0.00  0.00     0.106 A 
HETATM    4  C   UNK     0      17.825   1.953   0.000  0.00  0.00     0.196 A 
HETATM    5  C   UNK     0      17.275   4.563   0.000  0.00  0.00     0.073 A 
HETATM    6  C   UNK     0      18.782   4.880   0.000  0.00  0.00    -0.019 A 
HETATM    7  C   UNK     0      19.260   6.344   0.000  0.00  0.00     0.027 A 
HETATM    8  C   UNK     0      19.810   3.734   0.000  0.00  0.00     0.074 A 
HETATM    9  C   UNK     0      20.767   6.662   0.000  0.00  0.00     0.038 A 
HETATM   10  C   UNK     0      21.317   4.052   0.000  0.00  0.00     0.084 A 
HETATM   11  C   UNK     0      21.795   5.516   0.000  0.00  0.00     0.159 A 
ENDROOT
BRANCH   4  12
HETATM   12  N   UNK     0      17.346   0.489   0.000  0.00  0.00    -0.219 NA
BRANCH  12  13
HETATM   13  C   UNK     0      18.375  -0.657   0.000  0.00  0.00     0.135 C 
BRANCH  13  14
HETATM   14  C   UNK     0      17.896  -2.121   0.000  0.00  0.00     0.229 C 
HETATM   15  O   UNK     0      16.389  -2.439   0.000  0.00  0.00    -0.168 OA
HETATM   16  N   UNK     0      18.925  -3.267   0.000  0.00  0.00    -0.220 NA
BRANCH  16  17
HETATM   17  C   UNK     0      18.446  -4.731   0.000  0.00  0.00     0.102 A 
HETATM   18  C   UNK     0      19.475  -5.877   0.000  0.00  0.00     0.192 A 
HETATM   19  O   UNK     0      18.996  -7.341   0.000  0.00  0.00    -0.314 OA
HETATM   20  C   UNK     0      17.489  -7.659   0.000  0.00  0.00     0.151 A 
HETATM   21  C   UNK     0      16.461  -6.513   0.000  0.00  0.00     0.036 A 
HETATM   22  C   UNK     0      16.939  -5.049   0.000  0.00  0.00     0.052 A 
HETATM   23  C   UNK     0      14.954  -6.830   0.000  0.00  0.00     0.003 C 
BRANCH  18  24
HETATM   24  N   UNK     0      20.982  -5.560   0.000  0.00  0.00    -0.222 NA
BRANCH  24  25
HETATM   25  C   UNK     0      22.010  -6.706   0.000  0.00  0.00     0.103 C 
BRANCH  25  26
HETATM   26  C   UNK     0      23.517  -6.388   0.000  0.00  0.00     0.208 C 
HETATM   27  O   UNK     0      23.996  -4.925   0.000  0.00  0.00    -0.170 OA
HETATM   28  N   UNK     0      24.546  -7.535   0.000  0.00  0.00    -0.306 N 
HETATM   29  C   UNK     0      26.078  -7.376   0.000  0.00  0.00     0.084 A 
HETATM   30  C   UNK     0      24.223  -9.041   0.000  0.00  0.00     0.108 A 
HETATM   31  C   UNK     0      26.701  -8.784   0.000  0.00  0.00     0.050 A 
HETATM   32  C   UNK     0      25.555  -9.813   0.000  0.00  0.00     0.031 A 
BRANCH  29  33
HETATM   33  C   UNK     0      26.850  -6.044   0.000  0.00  0.00     0.244 C 
HETATM   34  O   UNK     0      26.082  -4.709   0.000  0.00  0.00    -0.166 OA
HETATM   35  N   UNK     0      28.390  -6.047   0.000  0.00  0.00    -0.116 NA
BRANCH  35  36
HETATM   36  N   UNK     0      29.162  -4.714   0.000  0.00  0.00    -0.103 NA
HETATM   37  C   UNK     0      30.702  -4.717   0.000  0.00  0.00     0.304 C 
HETATM   38  O   UNK     0      31.470  -6.052   0.000  0.00  0.00    -0.151 OA
HETATM   39  N   UNK     0      31.475  -3.385   0.000  0.00  0.00    -0.051 NA
ENDBRANCH  35  36
ENDBRANCH  29  33
ENDBRANCH  25  26
BRANCH  25  40
HETATM   40  C   UNK     0      21.532  -8.170   0.000  0.00  0.00     0.052 C 
BRANCH  40  41
HETATM   41  C   UNK     0      22.560  -9.316   0.000  0.00  0.00     0.033 C 
BRANCH  41  42
HETATM   42  C   UNK     0      22.082 -10.780   0.000  0.00  0.00     0.128 C 
BRANCH  42  43
HETATM   43  N   UNK     0      23.110 -11.926   0.000  0.00  0.00    -0.245 NA
HETATM   44  C   UNK     0      22.632 -13.390   0.000  0.00  0.00     0.219 C 
HETATM   45  N   UNK     0      21.125 -13.708   0.000  0.00  0.00    -0.065 NA
HETATM   46  N   UNK     0      23.660 -14.536   0.000  0.00  0.00    -0.065 NA
ENDBRANCH  42  43
ENDBRANCH  41  42
ENDBRANCH  40  41
ENDBRANCH  25  40
ENDBRANCH  24  25
ENDBRANCH  18  24
ENDBRANCH  16  17
ENDBRANCH  13  14
BRANCH  13  47
HETATM   47  C   UNK     0      19.882  -0.340   0.000  0.00  0.00     0.191 C 
BRANCH  47  48
HETATM   48  O   UNK     0      20.910  -1.486   0.000  0.00  0.00    -0.352 OA
BRANCH  48  49
HETATM   49  C   UNK     0      22.417  -1.168   0.000  0.00  0.00     0.094 C 
HETATM   50  C   UNK     0      22.735  -2.675   0.000  0.00  0.00     0.030 C 
HETATM   51  C   UNK     0      23.924  -0.851   0.000  0.00  0.00     0.030 C 
HETATM   52  C   UNK     0      22.099   0.339   0.000  0.00  0.00     0.030 C 
ENDBRANCH  48  49
ENDBRANCH  47  48
ENDBRANCH  13  47
ENDBRANCH  12  13
ENDBRANCH   4  12
BRANCH   3  53
HETATM   53  N   UNK     0      15.289   2.781   0.000  0.00  0.00    -0.219 NA
HETATM   54  C   UNK     0      14.261   3.928   0.000  0.00  0.00     0.229 C 
HETATM   55  O   UNK     0      14.739   5.391   0.000  0.00  0.00    -0.168 OA
BRANCH  54  56
HETATM   56  C   UNK     0      12.754   3.610   0.000  0.00  0.00     0.138 C 
BRANCH  56  57
HETATM   57  N   UNK     0      11.725   4.756   0.000  0.00  0.00    -0.217 NA
HETATM   58  C   UNK     0      10.218   4.439   0.000  0.00  0.00     0.227 C 
HETATM   59  O   UNK     0       9.740   2.975   0.000  0.00  0.00    -0.168 OA
BRANCH  58  60
HETATM   60  C   UNK     0       9.190   5.585   0.000  0.00  0.00     0.109 C 
BRANCH  60  61
HETATM   61  N   UNK     0       9.668   7.049   0.000  0.00  0.00    -0.219 NA
HETATM   62  C   UNK     0       8.640   8.195   0.000  0.00  0.00     0.226 C 
HETATM   63  O   UNK     0       7.133   7.877   0.000  0.00  0.00    -0.168 OA
BRANCH  62  64
HETATM   64  C   UNK     0       9.118   9.659   0.000  0.00  0.00     0.107 C 
BRANCH  64  65
HETATM   65  N   UNK     0       8.090  10.805   0.000  0.00  0.00    -0.220 NA
HETATM   66  C   UNK     0       6.583  10.488   0.000  0.00  0.00     0.226 C 
HETATM   67  O   UNK     0       6.104   9.024   0.000  0.00  0.00    -0.168 OA
BRANCH  66  68
HETATM   68  C   UNK     0       5.554  11.634   0.000  0.00  0.00     0.100 A 
HETATM   69  N   UNK     0       5.877  13.140   0.000  0.00  0.00    -0.242 NA
HETATM   70  C   UNK     0       4.545  13.912   0.000  0.00  0.00     0.255 A 
HETATM   71  O   UNK     0       4.387  15.444   0.000  0.00  0.00    -0.196 OA
HETATM   72  C   UNK     0       3.399  12.883   0.000  0.00  0.00     0.065 A 
HETATM   73  C   UNK     0       4.023  11.475   0.000  0.00  0.00     0.054 A 
ENDBRANCH  66  68
ENDBRANCH  64  65
BRANCH  64  74
HETATM   74  C   UNK     0      10.625   9.976   0.000  0.00  0.00     0.088 C 
BRANCH  74  75
HETATM   75  C   UNK     0      11.104  11.440   0.000  0.00  0.00     0.301 A 
HETATM   76  N   UNK     0      12.569  11.914   0.000  0.00  0.00     0.379 N 
HETATM   77  C   UNK     0      12.572  13.454   0.000  0.00  0.00     0.576 A 
HETATM   78  N   UNK     0      11.108  13.932   0.000  0.00  0.00     0.381 N 
HETATM   79  C   UNK     0      10.201  12.688   0.000  0.00  0.00     0.329 A 
ENDBRANCH  74  75
ENDBRANCH  64  74
ENDBRANCH  62  64
ENDBRANCH  60  61
BRANCH  60  80
HETATM   80  C   UNK     0       7.683   5.267   0.000  0.00  0.00     0.073 C 
BRANCH  80  81
HETATM   81  C   UNK     0       7.205   3.804   0.000  0.00  0.00    -0.017 A 
HETATM   82  C   UNK     0       5.747   3.334   0.000  0.00  0.00    -0.015 A 
HETATM   83  C   UNK     0       5.747   1.794   0.000  0.00  0.00     0.050 A 
HETATM   84  C   UNK     0       4.414   4.104   0.000  0.00  0.00     0.027 A 
HETATM   85  N   UNK     0       7.205   1.325   0.000  0.00  0.00    -0.271 NA
HETATM   86  C   UNK     0       4.414   1.024   0.000  0.00  0.00     0.045 A 
HETATM   87  C   UNK     0       8.103   2.564   0.000  0.00  0.00     0.147 A 
HETATM   88  C   UNK     0       3.080   1.794   0.000  0.00  0.00     0.007 A 
HETATM   89  C   UNK     0       3.080   3.334   0.000  0.00  0.00     0.005 A 
ENDBRANCH  80  81
ENDBRANCH  60  80
ENDBRANCH  58  60
ENDBRANCH  56  57
BRANCH  56  90
HETATM   90  C   UNK     0      12.275   2.146   0.000  0.00  0.00     0.232 C 
HETATM   91  O   UNK     0      13.304   1.000   0.000  0.00  0.00    -0.214 OA
ENDBRANCH  56  90
ENDBRANCH  54  56
ENDBRANCH   3  53
TORSDOF 29
