REMARK  24 active torsions:
REMARK  status: ('A' for Active; 'I' for Inactive)
REMARK       I    between atoms: C_2  and  N_9 
REMARK    1  A    between atoms: C_2  and  C_8 
REMARK       I    between atoms: C_3  and  N_7 
REMARK    2  A    between atoms: C_3  and  C_57 
REMARK    3  A    between atoms: C_4  and  N_11 
REMARK    4  A    between atoms: N_7  and  C_8 
REMARK    5  A    between atoms: C_8  and  C_32 
REMARK    6  A    between atoms: N_9  and  C_14 
REMARK    7  A    between atoms: N_11  and  C_15 
REMARK    8  A    between atoms: C_13  and  C_18 
REMARK    9  A    between atoms: C_16  and  C_39 
REMARK       I    between atoms: C_17  and  N_28 
REMARK   10  A    between atoms: C_18  and  C_45 
REMARK   11  A    between atoms: N_28  and  C_41 
REMARK   12  A    between atoms: C_39  and  C_42 
REMARK   13  A    between atoms: N_47  and  C_50 
REMARK   14  A    between atoms: C_50  and  C_51 
REMARK   15  A    between atoms: C_57  and  C_58 
REMARK   16  A    between atoms: C_57  and  N_59 
REMARK   17  A    between atoms: C_58  and  C_60 
REMARK       I    between atoms: N_59  and  C_69 
REMARK   18  A    between atoms: C_69  and  C_71 
REMARK   19  A    between atoms: C_71  and  N_72 
REMARK   20  A    between atoms: C_71  and  C_73 
REMARK       I    between atoms: N_72  and  C_79 
REMARK   21  A    between atoms: C_73  and  C_74 
REMARK   22  A    between atoms: C_79  and  C_80 
REMARK   23  A    between atoms: C_88  and  C_92 
REMARK       I    between atoms: C_92  and  N_94 
REMARK   24  A    between atoms: N_94  and  C_95 
ROOT
HETATM    1  C   UNK     0      -1.932  -7.740   0.000  0.00  0.00     0.109 C 
HETATM    2  C   UNK     0      -0.596  -6.979   0.000  0.00  0.00     0.186 C 
HETATM    3  O   UNK     0       0.733  -7.757   0.000  0.00  0.00    -0.647 OA
HETATM    4  O   UNK     0      -0.587  -5.439   0.000  0.00  0.00    -0.647 OA
ENDROOT
TORSDOF 24
