REMARK  0 active torsions:
REMARK  status: ('A' for Active; 'I' for Inactive)
REMARK       I    between atoms: N_3  and  C_5 
ROOT
HETATM    1  O   UNK     0       7.908  -0.092   0.000  0.00  0.00    -0.058 OA
HETATM    2  O   UNK     0       5.240  -1.632   0.000  0.00  0.00    -0.151 OA
HETATM    3  N   UNK     0       6.574   0.678   0.000  0.00  0.00    -0.053 NA
HETATM    4  N   UNK     0       3.907   0.678   0.000  0.00  0.00    -0.050 NA
HETATM    5  C   UNK     0       5.240  -0.092   0.000  0.00  0.00     0.312 C 
ENDROOT
TORSDOF 0
