REMARK  2 active torsions:
REMARK  status: ('A' for Active; 'I' for Inactive)
REMARK    1  A    between atoms: O_1  and  C_11 
REMARK    2  A    between atoms: O_1  and  C_17 
ROOT
HETATM    1  O   UNK     0       7.032  -4.495   0.000  0.00  0.00     0.000 OA
HETATM    2  O   UNK     0      11.902   0.723   0.000  0.00  0.00    -0.190 OA
HETATM    3  O   UNK     0      11.902  -5.436   0.000  0.00  0.00    -0.190 OA
HETATM    4  O   UNK     0       5.482  -1.834   0.000  0.00  0.00    -0.223 OA
HETATM    5  O   UNK     0      14.595   0.776   0.000  0.00  0.00    -0.190 OA
HETATM    6  O   UNK     0      14.595  -5.489   0.000  0.00  0.00    -0.190 OA
HETATM    7  C   UNK     0       9.192  -0.763   0.000  0.00  0.00     0.076 A 
HETATM    8  C   UNK     0       7.797  -3.158   0.000  0.00  0.00     0.041 A 
HETATM    9  C   UNK     0       7.797  -1.554   0.000  0.00  0.00     0.054 A 
HETATM   10  C   UNK     0       9.192  -3.950   0.000  0.00  0.00     0.032 A 
HETATM   11  C   UNK     0      10.569  -1.587   0.000  0.00  0.00     0.042 A 
HETATM   12  C   UNK     0      10.569  -3.126   0.000  0.00  0.00     0.007 A 
HETATM   13  C   UNK     0      11.902  -0.817   0.000  0.00  0.00     0.134 A 
HETATM   14  C   UNK     0       6.257  -3.164   0.000  0.00  0.00     0.153 A 
HETATM   15  C   UNK     0      11.902  -3.896   0.000  0.00  0.00     0.129 A 
HETATM   16  C   UNK     0      13.236  -1.587   0.000  0.00  0.00     0.054 A 
HETATM   17  C   UNK     0      13.236  -3.126   0.000  0.00  0.00     0.054 A 
HETATM   18  C   UNK     0       5.492  -4.501   0.000  0.00  0.00     0.036 A 
HETATM   19  C   UNK     0      14.612  -0.763   0.000  0.00  0.00     0.129 A 
HETATM   20  C   UNK     0      14.612  -3.950   0.000  0.00  0.00     0.129 A 
HETATM   21  C   UNK     0      16.008  -1.554   0.000  0.00  0.00     0.001 A 
HETATM   22  C   UNK     0      16.008  -3.158   0.000  0.00  0.00     0.001 A 
HETATM   23  C   UNK     0      17.441  -0.697   0.000  0.00  0.00     0.028 A 
HETATM   24  C   UNK     0      17.441  -4.016   0.000  0.00  0.00     0.028 A 
HETATM   25  C   UNK     0      18.895  -1.521   0.000  0.00  0.00     0.005 A 
HETATM   26  C   UNK     0      18.895  -3.192   0.000  0.00  0.00     0.005 A 
ENDROOT
BRANCH   7  27
HETATM   27  O   UNK     0       9.210   0.776   0.000  0.00  0.00    -0.309 OA
BRANCH  27  28
HETATM   28  C   UNK     0       7.885   1.562   0.000  0.00  0.00     0.249 A 
HETATM   29  O   UNK     0       6.543   0.807   0.000  0.00  0.00    -0.307 OA
HETATM   30  C   UNK     0       5.219   1.593   0.000  0.00  0.00     0.101 A 
HETATM   31  C   UNK     0       5.236   3.132   0.000  0.00  0.00     0.158 A 
HETATM   32  C   UNK     0       3.876   0.838   0.000  0.00  0.00     0.060 C 
HETATM   33  O   UNK     0       3.912   3.918   0.000  0.00  0.00    -0.188 OA
HETATM   34  C   UNK     0       6.579   3.887   0.000  0.00  0.00     0.080 A 
HETATM   35  N   UNK     0       6.597   5.426   0.000  0.00  0.00    -0.103 NA
HETATM   36  C   UNK     0       7.903   3.102   0.000  0.00  0.00     0.105 A 
ENDBRANCH  27  28
ENDBRANCH   7  27
TORSDOF 2
