REMARK  2 active torsions:
REMARK  status: ('A' for Active; 'I' for Inactive)
REMARK    1  A    between atoms: C_2  and  C_15 
REMARK    2  A    between atoms: C_20  and  N_28 
ROOT
HETATM    1  C   UNK     0       6.668   3.850   0.000  0.00  0.00     0.007 A 
HETATM    2  C   UNK     0       5.335   4.620   0.000  0.00  0.00     0.045 A 
HETATM    3  C   UNK     0       6.668   2.310   0.000  0.00  0.00     0.007 A 
HETATM    4  C   UNK     0      -1.334  -2.310   0.000  0.00  0.00     0.013 A 
HETATM    5  C   UNK     0       4.001   3.850   0.000  0.00  0.00     0.050 A 
HETATM    6  C   UNK     0       5.335   1.540   0.000  0.00  0.00     0.045 A 
HETATM    7  C   UNK     0       0.000  -3.080   0.000  0.00  0.00     0.057 A 
HETATM    8  C   UNK     0      -1.334  -0.770   0.000  0.00  0.00     0.046 A 
HETATM    9  C   UNK     0       4.001   2.310   0.000  0.00  0.00     0.056 A 
HETATM   10  C   UNK     0       1.334  -2.310   0.000  0.00  0.00     0.122 A 
HETATM   11  C   UNK     0       1.334   3.850   0.000  0.00  0.00     0.173 A 
HETATM   12  C   UNK     0       0.000   0.000   0.000  0.00  0.00     0.066 A 
HETATM   13  C   UNK     0       1.334  -0.770   0.000  0.00  0.00     0.079 A 
HETATM   14  C   UNK     0       1.334   2.310   0.000  0.00  0.00     0.137 A 
HETATM   15  C   UNK     0       2.667   0.000   0.000  0.00  0.00     0.202 A 
HETATM   16  F   UNK     0       2.667  -3.080   0.000  0.00  0.00    -0.209 F 
HETATM   17  N   UNK     0       2.667   4.620   0.000  0.00  0.00    -0.318 N 
HETATM   18  N   UNK     0       0.000   1.540   0.000  0.00  0.00    -0.235 NA
HETATM   19  N   UNK     0       2.667   1.540   0.000  0.00  0.00    -0.276 N 
HETATM   20  O   UNK     0       4.001  -0.770   0.000  0.00  0.00    -0.170 OA
ENDROOT
BRANCH  17  21
HETATM   21  C   UNK     0       2.667   6.160   0.000  0.00  0.00     0.161 A 
HETATM   22  C   UNK     0       1.334   6.930   0.000  0.00  0.00     0.147 A 
HETATM   23  C   UNK     0       1.334   8.470   0.000  0.00  0.00     0.178 A 
HETATM   24  N   UNK     0      -0.131   6.454   0.000  0.00  0.00    -0.238 NA
HETATM   25  N   UNK     0      -0.131   8.946   0.000  0.00  0.00    -0.225 NA
HETATM   26  N   UNK     0       2.667   9.240   0.000  0.00  0.00    -0.225 NA
HETATM   27  C   UNK     0      -1.036   7.700   0.000  0.00  0.00     0.253 A 
HETATM   28  C   UNK     0       4.001   8.470   0.000  0.00  0.00     0.254 A 
HETATM   29  N   UNK     0       4.001   6.930   0.000  0.00  0.00    -0.226 NA
ENDBRANCH  17  21
BRANCH  11  30
HETATM   30  C   UNK     0       0.000   4.620   0.000  0.00  0.00     0.021 C 
HETATM   31  C   UNK     0      -1.334   3.850   0.000  0.00  0.00     0.002 C 
ENDBRANCH  11  30
TORSDOF 2
