REMARK  2 active torsions:
REMARK  status: ('A' for Active; 'I' for Inactive)
REMARK    1  A    between atoms: C_10  and  C_39 
REMARK    2  A    between atoms: C_17  and  N_20 
ROOT
HETATM    1  C   UNK     0      -4.163   3.092   0.000  0.00  0.00     0.083 A 
HETATM    2  C   UNK     0      -4.163   1.552   0.000  0.00  0.00     0.015 A 
HETATM    3  C   UNK     0      -2.829   0.782   0.000  0.00  0.00     0.075 A 
HETATM    4  C   UNK     0      -1.496   1.552   0.000  0.00  0.00     0.060 A 
HETATM    5  C   UNK     0      -1.496   3.092   0.000  0.00  0.00    -0.006 A 
HETATM    6  C   UNK     0      -2.829   3.862   0.000  0.00  0.00     0.079 A 
HETATM    7  N   UNK     0      -0.162   0.782   0.000  0.00  0.00    -0.249 NA
HETATM    8  C   UNK     0       1.171   1.552   0.000  0.00  0.00     0.094 A 
HETATM    9  C   UNK     0       1.171   3.092   0.000  0.00  0.00     0.015 A 
HETATM   10  C   UNK     0      -0.162   3.862   0.000  0.00  0.00    -0.025 A 
HETATM   11  O   UNK     0      -5.497   3.862   0.000  0.00  0.00    -0.274 OA
HETATM   12  C   UNK     0      -6.831   3.092   0.000  0.00  0.00     0.304 A 
HETATM   13  O   UNK     0      -8.164   3.863   0.000  0.00  0.00    -0.142 OA
HETATM   14  N   UNK     0      -6.830   1.529   0.000  0.00  0.00    -0.290 N 
HETATM   15  C   UNK     0      -5.507   0.765   0.000  0.00  0.00     0.044 A 
HETATM   16  C   UNK     0      -5.507  -0.775   0.000  0.00  0.00     0.083 A 
HETATM   17  C   UNK     0      -6.841  -1.545   0.000  0.00  0.00     0.018 A 
HETATM   18  C   UNK     0      -8.164  -0.781   0.000  0.00  0.00     0.064 A 
HETATM   19  C   UNK     0      -8.164   0.758   0.000  0.00  0.00     0.116 A 
HETATM   20  C   UNK     0       2.636   1.077   0.000  0.00  0.00     0.072 A 
HETATM   21  N   UNK     0       3.541   2.322   0.000  0.00  0.00    -0.302 N 
HETATM   22  C   UNK     0       2.636   3.568   0.000  0.00  0.00     0.136 A 
HETATM   23  C   UNK     0       5.077   2.322   0.000  0.00  0.00     0.189 A 
HETATM   24  C   UNK     0       5.847   0.989   0.000  0.00  0.00     0.033 A 
HETATM   25  C   UNK     0       5.087  -0.326   0.000  0.00  0.00     0.074 A 
HETATM   26  C   UNK     0       3.537  -0.326   0.000  0.00  0.00    -0.018 A 
HETATM   27  C   UNK     0       5.857  -1.660   0.000  0.00  0.00     0.191 A 
HETATM   28  C   UNK     0       7.397  -1.660   0.000  0.00  0.00     0.299 A 
HETATM   29  O   UNK     0       8.157  -0.345   0.000  0.00  0.00    -0.322 OA
HETATM   30  C   UNK     0       7.387   0.989   0.000  0.00  0.00     0.171 A 
HETATM   31  O   UNK     0       5.847   3.656   0.000  0.00  0.00    -0.172 OA
HETATM   32  O   UNK     0       8.174  -3.005   0.000  0.00  0.00    -0.187 OA
HETATM   33  C   UNK     0       4.317  -1.660   0.000  0.00  0.00     0.057 A 
HETATM   34  O   UNK     0       5.857  -3.221   0.000  0.00  0.00    -0.220 OA
HETATM   35  C   UNK     0       3.539  -3.016   0.000  0.00  0.00     0.007 C 
ENDROOT
BRANCH  17  36
HETATM   36  N   UNK     0      -6.840  -3.094   0.000  0.00  0.00    -0.354 N 
HETATM   37  C   UNK     0      -5.511  -3.861   0.000  0.00  0.00     0.101 A 
HETATM   38  C   UNK     0      -5.511  -5.401   0.000  0.00  0.00     0.024 A 
HETATM   39  C   UNK     0      -6.844  -6.171   0.000  0.00  0.00     0.004 A 
HETATM   40  C   UNK     0      -8.173  -5.404   0.000  0.00  0.00     0.024 A 
HETATM   41  C   UNK     0      -8.174  -3.864   0.000  0.00  0.00     0.101 A 
ENDBRANCH  17  36
BRANCH  10  42
HETATM   42  C   UNK     0      -0.162   5.402   0.000  0.00  0.00     0.026 C 
HETATM   43  C   UNK     0      -1.494   6.171   0.000  0.00  0.00     0.005 C 
ENDBRANCH  10  42
TORSDOF 2
