REMARK  3 active torsions:
REMARK  status: ('A' for Active; 'I' for Inactive)
REMARK    1  A    between atoms: C_10  and  C_16 
REMARK    2  A    between atoms: C_11  and  C_15 
REMARK    3  A    between atoms: C_15  and  C_16 
ROOT
HETATM    1  O   UNK     0       0.692   3.479   0.000  0.00  0.00    -0.366 OA
HETATM    2  C   UNK     0       2.029   2.694   0.000  0.00  0.00     0.110 A 
HETATM    3  C   UNK     0       0.692   1.924   0.000  0.00  0.00     0.213 A 
HETATM    4  C   UNK     0       6.010  -2.702   0.000  0.00  0.00     0.111 A 
HETATM    5  C   UNK     0       4.688  -1.932   0.000  0.00  0.00     0.090 A 
HETATM    6  C   UNK     0       7.339  -1.947   0.000  0.00  0.00     0.005 A 
HETATM    7  N   UNK     0      -0.676  -1.924   0.000  0.00  0.00    -0.228 NA
HETATM    8  C   UNK     0       0.700  -2.678   0.000  0.00  0.00     0.195 A 
HETATM    9  C   UNK     0      -0.653  -0.369   0.000  0.00  0.00     0.055 A 
HETATM   10  C   UNK     0       3.359  -2.694   0.000  0.00  0.00     0.102 A 
HETATM   11  C   UNK     0       0.676   0.385   0.000  0.00  0.00     0.068 A 
HETATM   12  C   UNK     0       2.029  -1.909   0.000  0.00  0.00     0.125 A 
HETATM   13  C   UNK     0       7.347  -0.416   0.000  0.00  0.00     0.145 A 
HETATM   14  O   UNK     0       5.994  -4.233   0.000  0.00  0.00    -0.195 OA
HETATM   15  O   UNK     0       0.692  -4.210   0.000  0.00  0.00    -0.174 OA
HETATM   16  C   UNK     0       6.018   0.361   0.000  0.00  0.00     0.037 A 
HETATM   17  C   UNK     0       3.359   1.916   0.000  0.00  0.00     0.029 A 
HETATM   18  O   UNK     0       8.676   0.354   0.000  0.00  0.00    -0.222 OA
HETATM   19  O   UNK     0       3.351  -4.218   0.000  0.00  0.00    -0.198 OA
HETATM   20  C   UNK     0       2.045   4.233   0.000  0.00  0.00     0.032 C 
HETATM   21  C   UNK     0       5.753  -0.859   0.000  0.00  0.00     0.049 A 
HETATM   22  C   UNK     0       3.607  -0.851   0.000  0.00  0.00    -0.041 A 
HETATM   23  C   UNK     0       8.653  -2.717   0.000  0.00  0.00     0.031 C 
HETATM   24  C   UNK     0       4.703   2.686   0.000  0.00  0.00     0.003 A 
HETATM   25  C   UNK     0       6.033   1.901   0.000  0.00  0.00     0.003 A 
HETATM   26  C   UNK     0       4.688  -0.393   0.000  0.00  0.00     0.034 A 
ENDROOT
BRANCH   9  27
HETATM   27  C   UNK     0      -1.990   0.400   0.000  0.00  0.00    -0.034 C 
HETATM   28  C   UNK     0      -1.982   1.947   0.000  0.00  0.00    -0.004 C 
BRANCH  27  29
HETATM   29  C   UNK     0      -3.335  -0.369   0.000  0.00  0.00     0.060 C 
BRANCH  29  30
HETATM   30  C   UNK     0      -4.673   0.424   0.000  0.00  0.00     0.272 A 
HETATM   31  N   UNK     0      -6.095  -0.206   0.000  0.00  0.00     0.347 N 
HETATM   32  C   UNK     0      -7.137   0.960   0.000  0.00  0.00     0.304 A 
HETATM   33  C   UNK     0      -8.676   0.797   0.000  0.00  0.00     0.050 C 
HETATM   34  S   UNK     0      -6.344   2.290   0.000  0.00  0.00    -0.104 SA
HETATM   35  C   UNK     0      -4.828   1.963   0.000  0.00  0.00     0.096 A 
ENDBRANCH  29  30
ENDBRANCH  27  29
ENDBRANCH   9  27
TORSDOF 3
