REMARK  7 active torsions:
REMARK  status: ('A' for Active; 'I' for Inactive)
REMARK       I    between atoms: C_1  and  N_2 
REMARK    1  A    between atoms: C_1  and  C_3 
REMARK    2  A    between atoms: N_2  and  C_5 
REMARK    3  A    between atoms: C_5  and  C_6 
REMARK       I    between atoms: C_6  and  N_7 
REMARK    4  A    between atoms: N_7  and  C_9 
REMARK    5  A    between atoms: C_9  and  C_10 
REMARK    6  A    between atoms: C_9  and  B_11 
REMARK    7  A    between atoms: C_10  and  C_12 
ROOT
HETATM    1  C   UNK     0       0.039   0.849   0.000  0.00  0.00     0.202 C 
ENDROOT
BRANCH   1   2
HETATM    2  N   UNK     0      -1.288   0.068   0.000  0.00  0.00    -0.237 NA
HETATM    3  C   UNK     0      -2.615   0.849   0.000  0.00  0.00     0.206 C 
HETATM    4  O   UNK     0      -2.615   2.411   0.000  0.00  0.00    -0.170 OA
BRANCH   3   5
HETATM    5  C   UNK     0      -4.021   0.068   0.000  0.00  0.00     0.033 A 
HETATM    6  C   UNK     0      -5.348   0.849   0.000  0.00  0.00     0.064 A 
HETATM    7  C   UNK     0      -6.675   0.068   0.000  0.00  0.00     0.018 A 
HETATM    8  C   UNK     0      -6.675  -1.493   0.000  0.00  0.00     0.040 A 
HETATM    9 Cl   UNK     0      -8.081   0.849   0.000  0.00  0.00    -0.091 Cl
HETATM   10  C   UNK     0      -5.348  -2.274   0.000  0.00  0.00     0.043 A 
HETATM   11  C   UNK     0      -4.021  -1.493   0.000  0.00  0.00     0.036 A 
HETATM   12 Cl   UNK     0      -2.615  -2.352   0.000  0.00  0.00    -0.087 Cl
ENDBRANCH   3   5
ENDBRANCH   1   2
BRANCH   1  13
HETATM   13  C   UNK     0       1.366   0.068   0.000  0.00  0.00     0.213 C 
HETATM   14  N   UNK     0       2.771   0.849   0.000  0.00  0.00    -0.238 NA
HETATM   15  O   UNK     0       1.366  -1.493   0.000  0.00  0.00    -0.172 OA
BRANCH  14  16
HETATM   16  C   UNK     0       4.099   0.068   0.000  0.00  0.00     0.057 C 
BRANCH  16  17
HETATM   17  C   UNK     0       5.426   0.849   0.000  0.00  0.00     0.034 C 
BRANCH  17  18
HETATM   18  C   UNK     0       6.753   0.068   0.000  0.00  0.00     0.005 C 
HETATM   19  C   UNK     0       8.081   0.849   0.000  0.00  0.00     0.000 C 
HETATM   20  C   UNK     0       6.753  -1.493   0.000  0.00  0.00     0.000 C 
ENDBRANCH  17  18
ENDBRANCH  16  17
BRANCH  16  21
HETATM   21  B   UNK     0       4.099  -1.493   0.000  0.00  0.00     0.602 B 
HETATM   22  O   UNK     0       2.836  -2.411   0.000  0.00  0.00    -0.279 OA
HETATM   23  O   UNK     0       5.362  -2.411   0.000  0.00  0.00    -0.279 OA
ENDBRANCH  16  21
ENDBRANCH  14  16
ENDBRANCH   1  13
TORSDOF 7
