REMARK  11 active torsions:
REMARK  status: ('A' for Active; 'I' for Inactive)
REMARK    1  A    between atoms: S_2  and  C_13 
REMARK    2  A    between atoms: O_7  and  C_31 
REMARK    3  A    between atoms: O_7  and  C_34 
REMARK    4  A    between atoms: N_8  and  C_12 
REMARK    5  A    between atoms: N_8  and  C_14 
REMARK    6  A    between atoms: N_9  and  C_24 
REMARK    7  A    between atoms: N_9  and  C_27 
REMARK    8  A    between atoms: C_12  and  C_13 
REMARK    9  A    between atoms: C_14  and  C_15 
REMARK   10  A    between atoms: C_16  and  C_17 
REMARK   11  A    between atoms: C_34  and  C_35 
ROOT
HETATM    1  N   UNK     0      16.474   5.882   0.000  0.00  0.00    -0.249 NA
HETATM    2  N   UNK     0      17.870   3.487   0.000  0.00  0.00    -0.226 NA
HETATM    3  C   UNK     0      12.430   3.519   0.000  0.00  0.00    -0.021 A 
HETATM    4  C   UNK     0      15.098   3.519   0.000  0.00  0.00     0.031 A 
HETATM    5  C   UNK     0      13.764   2.749   0.000  0.00  0.00     0.054 A 
HETATM    6  C   UNK     0      15.098   5.059   0.000  0.00  0.00     0.056 A 
HETATM    7  C   UNK     0      12.430   5.059   0.000  0.00  0.00     0.030 A 
HETATM    8  C   UNK     0      16.474   2.695   0.000  0.00  0.00     0.157 A 
HETATM    9  C   UNK     0      13.764   5.829   0.000  0.00  0.00     0.050 A 
HETATM   10  C   UNK     0      17.870   5.091   0.000  0.00  0.00     0.252 A 
ENDROOT
BRANCH   8  11
HETATM   11  N   UNK     0      16.457   1.155   0.000  0.00  0.00    -0.236 NA
BRANCH  11  12
HETATM   12  C   UNK     0      17.781   0.370   0.000  0.00  0.00     0.044 A 
HETATM   13  C   UNK     0      17.764  -1.170   0.000  0.00  0.00     0.081 A 
HETATM   14  C   UNK     0      19.088  -1.955   0.000  0.00  0.00     0.059 A 
HETATM   15 Cl   UNK     0      19.071  -3.495   0.000  0.00  0.00    -0.085 Cl
HETATM   16  C   UNK     0      20.431  -1.201   0.000  0.00  0.00     0.079 A 
HETATM   17  C   UNK     0      20.449   0.339   0.000  0.00  0.00     0.058 A 
HETATM   18  C   UNK     0      19.124   1.124   0.000  0.00  0.00     0.049 A 
BRANCH  16  19
HETATM   19  O   UNK     0      21.756  -1.986   0.000  0.00  0.00    -0.335 OA
BRANCH  19  20
HETATM   20  C   UNK     0      23.098  -1.232   0.000  0.00  0.00     0.149 C 
BRANCH  20  21
HETATM   21  C   UNK     0      24.423  -2.017   0.000  0.00  0.00     0.037 A 
HETATM   22  C   UNK     0      24.405  -3.557   0.000  0.00  0.00     0.054 A 
HETATM   23  C   UNK     0      25.730  -4.342   0.000  0.00  0.00     0.095 A 
HETATM   24  F   UNK     0      25.712  -5.882   0.000  0.00  0.00    -0.214 F 
HETATM   25  C   UNK     0      27.072  -3.588   0.000  0.00  0.00     0.052 A 
HETATM   26  C   UNK     0      27.090  -2.048   0.000  0.00  0.00     0.007 A 
HETATM   27  C   UNK     0      25.765  -1.262   0.000  0.00  0.00     0.003 A 
ENDBRANCH  20  21
ENDBRANCH  19  20
ENDBRANCH  16  19
ENDBRANCH  11  12
ENDBRANCH   8  11
BRANCH   3  28
HETATM   28  C   UNK     0      11.097   2.749   0.000  0.00  0.00     0.064 A 
HETATM   29  O   UNK     0      10.936   1.217   0.000  0.00  0.00    -0.336 OA
HETATM   30  C   UNK     0       9.429   0.897   0.000  0.00  0.00     0.145 A 
HETATM   31  C   UNK     0       8.659   2.231   0.000  0.00  0.00     0.039 A 
HETATM   32  C   UNK     0       9.690   3.375   0.000  0.00  0.00     0.053 A 
BRANCH  30  33
HETATM   33  C   UNK     0       8.803  -0.510   0.000  0.00  0.00     0.150 C 
BRANCH  33  34
HETATM   34  N   UNK     0       7.271  -0.671   0.000  0.00  0.00    -0.292 NA
BRANCH  34  35
HETATM   35  C   UNK     0       6.645  -2.078   0.000  0.00  0.00     0.137 C 
BRANCH  35  36
HETATM   36  C   UNK     0       5.113  -2.239   0.000  0.00  0.00     0.148 C 
BRANCH  36  37
HETATM   37  S   UNK     0       4.487  -3.646   0.000  0.00  0.00     0.173 S 
HETATM   38  O   UNK     0       5.894  -4.272   0.000  0.00  0.00    -0.226 OA
HETATM   39  O   UNK     0       3.080  -3.019   0.000  0.00  0.00    -0.226 OA
HETATM   40  C   UNK     0       3.861  -5.053   0.000  0.00  0.00     0.140 C 
ENDBRANCH  36  37
ENDBRANCH  35  36
ENDBRANCH  34  35
ENDBRANCH  33  34
ENDBRANCH  30  33
ENDBRANCH   3  28
TORSDOF 11
