REMARK  10 active torsions:
REMARK  status: ('A' for Active; 'I' for Inactive)
REMARK    1  A    between atoms: C_7  and  C_8 
REMARK    2  A    between atoms: C_8  and  N_31 
REMARK    3  A    between atoms: C_9  and  N_31 
REMARK    4  A    between atoms: C_14  and  C_15 
REMARK       I    between atoms: C_15  and  N_17 
REMARK    5  A    between atoms: N_17  and  C_19 
REMARK    6  A    between atoms: C_19  and  C_23 
REMARK    7  A    between atoms: C_19  and  C_21 
REMARK    8  A    between atoms: C_23  and  C_24 
REMARK    9  A    between atoms: C_24  and  C_25 
REMARK   10  A    between atoms: N_32  and  C_34 
ROOT
HETATM    1  C   UNK     0       0.667  -1.925   0.000  0.00  0.00     0.033 A 
HETATM    2  C   UNK     0       3.334  -1.925   0.000  0.00  0.00     0.032 A 
HETATM    3  C   UNK     0       2.001  -2.695   0.000  0.00  0.00     0.045 A 
HETATM    4  C   UNK     0       0.667  -0.385   0.000  0.00  0.00     0.045 A 
HETATM    5  C   UNK     0       2.001   0.385   0.000  0.00  0.00     0.032 A 
HETATM    6  C   UNK     0       3.334  -0.385   0.000  0.00  0.00     0.000 A 
ENDROOT
BRANCH   1   7
HETATM    7  N   UNK     0      -0.667  -2.695   0.000  0.00  0.00    -0.273 NA
BRANCH   7   8
HETATM    8  C   UNK     0      -2.000  -1.925   0.000  0.00  0.00     0.166 C 
BRANCH   8   9
HETATM    9  C   UNK     0      -3.334  -2.695   0.000  0.00  0.00     0.069 A 
HETATM   10  C   UNK     0      -3.334  -4.235   0.000  0.00  0.00     0.169 A 
HETATM   11  N   UNK     0      -4.668  -5.005   0.000  0.00  0.00    -0.245 NA
HETATM   12  C   UNK     0      -6.002  -4.235   0.000  0.00  0.00     0.181 A 
HETATM   13  N   UNK     0      -7.335  -5.005   0.000  0.00  0.00    -0.194 NA
HETATM   14  C   UNK     0      -6.002  -2.695   0.000  0.00  0.00     0.144 A 
HETATM   15  C   UNK     0      -8.669  -4.235   0.000  0.00  0.00     0.241 A 
HETATM   16  N   UNK     0      -8.669  -2.695   0.000  0.00  0.00    -0.187 NA
HETATM   17  N   UNK     0     -10.003  -5.005   0.000  0.00  0.00    -0.059 NA
HETATM   18  C   UNK     0      -7.335  -1.925   0.000  0.00  0.00     0.234 A 
HETATM   19  O   UNK     0      -7.335  -0.385   0.000  0.00  0.00    -0.167 OA
HETATM   20  N   UNK     0      -4.668  -1.925   0.000  0.00  0.00    -0.295 N 
BRANCH  20  21
HETATM   21  C   UNK     0      -4.668  -0.385   0.000  0.00  0.00     0.276 C 
HETATM   22  O   UNK     0      -3.334   0.385   0.000  0.00  0.00    -0.186 OA
ENDBRANCH  20  21
ENDBRANCH   8   9
ENDBRANCH   7   8
ENDBRANCH   1   7
BRANCH   6  23
HETATM   23  C   UNK     0       4.668   0.385   0.000  0.00  0.00     0.205 C 
HETATM   24  N   UNK     0       6.001  -0.385   0.000  0.00  0.00    -0.219 NA
HETATM   25  O   UNK     0       4.668   1.925   0.000  0.00  0.00    -0.170 OA
BRANCH  24  26
HETATM   26  C   UNK     0       7.335   0.385   0.000  0.00  0.00     0.126 C 
BRANCH  26  27
HETATM   27  C   UNK     0       7.335   1.925   0.000  0.00  0.00     0.064 C 
BRANCH  27  28
HETATM   28  C   UNK     0       8.669   2.695   0.000  0.00  0.00     0.104 C 
BRANCH  28  29
HETATM   29  C   UNK     0       8.669   4.235   0.000  0.00  0.00     0.186 C 
HETATM   30  O   UNK     0       7.335   5.005   0.000  0.00  0.00    -0.647 OA
HETATM   31  O   UNK     0      10.003   5.005   0.000  0.00  0.00    -0.647 OA
ENDBRANCH  28  29
ENDBRANCH  27  28
ENDBRANCH  26  27
BRANCH  26  32
HETATM   32  C   UNK     0       8.669  -0.385   0.000  0.00  0.00     0.225 C 
HETATM   33  O   UNK     0      10.003   0.385   0.000  0.00  0.00    -0.643 OA
HETATM   34  O   UNK     0       8.669  -1.925   0.000  0.00  0.00    -0.643 OA
ENDBRANCH  26  32
ENDBRANCH  24  26
ENDBRANCH   6  23
TORSDOF 10
