REMARK  19 active torsions:
REMARK  status: ('A' for Active; 'I' for Inactive)
REMARK       I    between atoms: C_2  and  N_9 
REMARK    1  A    between atoms: C_2  and  C_8 
REMARK       I    between atoms: C_3  and  N_7 
REMARK    2  A    between atoms: C_3  and  C_46 
REMARK    3  A    between atoms: N_7  and  C_8 
REMARK    4  A    between atoms: C_8  and  C_32 
REMARK    5  A    between atoms: N_9  and  C_14 
REMARK    6  A    between atoms: N_11  and  C_15 
REMARK    7  A    between atoms: C_16  and  C_39 
REMARK       I    between atoms: C_17  and  N_28 
REMARK    8  A    between atoms: N_28  and  C_41 
REMARK    9  A    between atoms: C_39  and  C_42 
REMARK   10  A    between atoms: C_46  and  C_47 
REMARK   11  A    between atoms: C_46  and  N_48 
REMARK   12  A    between atoms: C_47  and  C_49 
REMARK       I    between atoms: N_48  and  C_58 
REMARK   13  A    between atoms: C_58  and  C_60 
REMARK   14  A    between atoms: C_60  and  N_61 
REMARK   15  A    between atoms: C_60  and  C_62 
REMARK       I    between atoms: N_61  and  C_68 
REMARK   16  A    between atoms: C_62  and  C_63 
REMARK   17  A    between atoms: C_68  and  C_69 
REMARK   18  A    between atoms: C_77  and  C_81 
REMARK       I    between atoms: C_81  and  N_83 
REMARK   19  A    between atoms: N_83  and  C_84 
ROOT
HETATM    1  C   UNK     0       5.318   0.449   0.000  0.00  0.00     0.176 A 
HETATM    2  C   UNK     0       1.409  -0.380   0.000  0.00  0.00     0.212 A 
HETATM    3  N   UNK     0       2.712   0.449   0.000  0.00  0.00    -0.283 N 
HETATM    4  N   UNK     0       6.621  -0.380   0.000  0.00  0.00    -0.308 N 
HETATM    5  C   UNK     0       4.015  -0.380   0.000  0.00  0.00     0.083 A 
HETATM    6  C   UNK     0       0.106   0.449   0.000  0.00  0.00     0.108 A 
HETATM    7  C   UNK     0       4.015  -1.802   0.000  0.00  0.00     0.050 A 
HETATM    8  O   UNK     0       1.409  -1.802   0.000  0.00  0.00    -0.169 OA
HETATM    9  O   UNK     0       5.318   1.989   0.000  0.00  0.00    -0.286 OA
HETATM   10  C   UNK     0       0.106   1.989   0.000  0.00  0.00     0.077 A 
HETATM   11  C   UNK     0       1.409   2.700   0.000  0.00  0.00    -0.002 A 
HETATM   12  C   UNK     0       4.015   4.240   0.000  0.00  0.00     0.137 A 
HETATM   13  C   UNK     0       2.712   1.989   0.000  0.00  0.00     0.086 A 
HETATM   14  C   UNK     0       1.409   4.240   0.000  0.00  0.00    -0.021 A 
HETATM   15  C   UNK     0       4.015   2.700   0.000  0.00  0.00     0.139 A 
HETATM   16  C   UNK     0       2.712   5.069   0.000  0.00  0.00     0.082 A 
HETATM   17  O   UNK     0       5.318   5.069   0.000  0.00  0.00    -0.192 OA
HETATM   18  C   UNK     0       5.349  -2.572   0.000  0.00  0.00     0.029 A 
HETATM   19  C   UNK     0       5.349  -4.112   0.000  0.00  0.00     0.002 C 
HETATM   20  C   UNK     0       6.683  -1.802   0.000  0.00  0.00     0.108 A 
ENDROOT
BRANCH   6  21
HETATM   21  N   UNK     0      -1.315  -0.380   0.000  0.00  0.00    -0.219 NA
HETATM   22  C   UNK     0      -2.619   0.449   0.000  0.00  0.00     0.229 C 
HETATM   23  O   UNK     0      -2.619   1.989   0.000  0.00  0.00    -0.168 OA
BRANCH  22  24
HETATM   24  C   UNK     0      -3.922  -0.380   0.000  0.00  0.00     0.138 C 
BRANCH  24  25
HETATM   25  N   UNK     0      -5.225   0.449   0.000  0.00  0.00    -0.217 NA
HETATM   26  C   UNK     0      -6.528  -0.380   0.000  0.00  0.00     0.227 C 
HETATM   27  O   UNK     0      -6.528  -1.920   0.000  0.00  0.00    -0.168 OA
BRANCH  26  28
HETATM   28  C   UNK     0      -7.870   0.387   0.000  0.00  0.00     0.109 C 
BRANCH  28  29
HETATM   29  C   UNK     0      -7.875   1.927   0.000  0.00  0.00     0.073 C 
BRANCH  29  30
HETATM   30  C   UNK     0      -6.545   2.702   0.000  0.00  0.00    -0.017 A 
HETATM   31  C   UNK     0      -6.389   4.235   0.000  0.00  0.00    -0.015 A 
HETATM   32  C   UNK     0      -4.884   4.560   0.000  0.00  0.00     0.050 A 
HETATM   33  C   UNK     0      -7.465   5.235   0.000  0.00  0.00     0.027 A 
HETATM   34  N   UNK     0      -4.109   3.230   0.000  0.00  0.00    -0.271 NA
HETATM   35  C   UNK     0      -4.495   6.050   0.000  0.00  0.00     0.045 A 
HETATM   36  C   UNK     0      -5.135   2.081   0.000  0.00  0.00     0.147 A 
HETATM   37  C   UNK     0      -5.590   7.133   0.000  0.00  0.00     0.007 A 
HETATM   38  C   UNK     0      -7.075   6.725   0.000  0.00  0.00     0.005 A 
ENDBRANCH  29  30
ENDBRANCH  28  29
BRANCH  28  39
HETATM   39  N   UNK     0      -9.200  -0.388   0.000  0.00  0.00    -0.219 NA
HETATM   40  C   UNK     0     -10.537   0.377   0.000  0.00  0.00     0.226 C 
HETATM   41  O   UNK     0     -10.541   1.909   0.000  0.00  0.00    -0.168 OA
BRANCH  40  42
HETATM   42  C   UNK     0     -11.877  -0.392   0.000  0.00  0.00     0.107 C 
BRANCH  42  43
HETATM   43  N   UNK     0     -13.209   0.382   0.000  0.00  0.00    -0.220 NA
HETATM   44  C   UNK     0     -14.545  -0.385   0.000  0.00  0.00     0.226 C 
HETATM   45  O   UNK     0     -14.549  -1.932   0.000  0.00  0.00    -0.168 OA
BRANCH  44  46
HETATM   46  C   UNK     0     -15.877   0.390   0.000  0.00  0.00     0.100 A 
HETATM   47  N   UNK     0     -17.286  -0.231   0.000  0.00  0.00    -0.242 NA
HETATM   48  C   UNK     0     -18.312   0.917   0.000  0.00  0.00     0.255 A 
HETATM   49  C   UNK     0     -17.538   2.248   0.000  0.00  0.00     0.065 A 
HETATM   50  O   UNK     0     -19.844   0.761   0.000  0.00  0.00    -0.196 OA
HETATM   51  C   UNK     0     -16.032   1.922   0.000  0.00  0.00     0.054 A 
ENDBRANCH  44  46
ENDBRANCH  42  43
BRANCH  42  52
HETATM   52  C   UNK     0     -11.877  -1.932   0.000  0.00  0.00     0.088 C 
BRANCH  52  53
HETATM   53  C   UNK     0     -10.544  -2.702   0.000  0.00  0.00     0.301 A 
HETATM   54  N   UNK     0      -9.137  -2.075   0.000  0.00  0.00     0.379 N 
HETATM   55  C   UNK     0      -8.106  -3.220   0.000  0.00  0.00     0.576 A 
HETATM   56  N   UNK     0      -8.876  -4.554   0.000  0.00  0.00     0.381 N 
HETATM   57  C   UNK     0     -10.383  -4.233   0.000  0.00  0.00     0.329 A 
ENDBRANCH  52  53
ENDBRANCH  42  52
ENDBRANCH  40  42
ENDBRANCH  28  39
ENDBRANCH  26  28
ENDBRANCH  24  25
BRANCH  24  58
HETATM   58  C   UNK     0      -3.922  -1.920   0.000  0.00  0.00     0.232 C 
HETATM   59  O   UNK     0      -2.619  -2.631   0.000  0.00  0.00    -0.214 OA
ENDBRANCH  24  58
ENDBRANCH  22  24
ENDBRANCH   6  21
BRANCH   4  60
HETATM   60  C   UNK     0       7.925   0.449   0.000  0.00  0.00     0.085 A 
HETATM   61  C   UNK     0       9.227  -0.262   0.000  0.00  0.00     0.210 A 
HETATM   62  N   UNK     0      10.649   0.449   0.000  0.00  0.00    -0.281 N 
HETATM   63  O   UNK     0       9.227  -1.802   0.000  0.00  0.00    -0.169 OA
HETATM   64  C   UNK     0      11.952  -0.262   0.000  0.00  0.00     0.108 A 
HETATM   65  C   UNK     0      10.649   1.989   0.000  0.00  0.00     0.070 A 
HETATM   66  C   UNK     0      13.255   0.449   0.000  0.00  0.00     0.214 A 
HETATM   67  O   UNK     0      14.550  -0.385   0.000  0.00  0.00    -0.169 OA
HETATM   68  N   UNK     0      13.264   1.983   0.000  0.00  0.00    -0.287 N 
HETATM   69  C   UNK     0      14.510   2.888   0.000  0.00  0.00     0.087 A 
HETATM   70  C   UNK     0      12.018   2.888   0.000  0.00  0.00     0.059 A 
HETATM   71  C   UNK     0      14.034   4.353   0.000  0.00  0.00     0.054 A 
HETATM   72  C   UNK     0      12.494   4.353   0.000  0.00  0.00     0.052 A 
HETATM   73  C   UNK     0       9.227   2.700   0.000  0.00  0.00    -0.021 A 
HETATM   74  C   UNK     0       7.925   1.989   0.000  0.00  0.00     0.071 A 
HETATM   75  C   UNK     0       9.227   4.240   0.000  0.00  0.00     0.028 C 
BRANCH  64  76
HETATM   76  C   UNK     0      11.952  -1.802   0.000  0.00  0.00     0.023 C 
BRANCH  76  77
HETATM   77  C   UNK     0      13.255  -2.631   0.000  0.00  0.00     0.022 C 
HETATM   78  C   UNK     0      13.255  -4.053   0.000  0.00  0.00     0.101 C 
BRANCH  78  79
HETATM   79  N   UNK     0      14.558  -4.882   0.000  0.00  0.00    -0.217 NA
HETATM   80  C   UNK     0      14.558  -6.422   0.000  0.00  0.00     0.223 C 
HETATM   81  N   UNK     0      13.255  -7.133   0.000  0.00  0.00    -0.065 NA
HETATM   82  N   UNK     0      15.862  -7.133   0.000  0.00  0.00    -0.065 NA
ENDBRANCH  78  79
ENDBRANCH  76  77
ENDBRANCH  64  76
BRANCH  69  83
HETATM   83  C   UNK     0      15.843   2.118   0.000  0.00  0.00     0.221 C 
HETATM   84  O   UNK     0      15.843   0.578   0.000  0.00  0.00    -0.168 OA
HETATM   85  N   UNK     0      17.177   2.888   0.000  0.00  0.00    -0.245 NA
BRANCH  85  86
HETATM   86  C   UNK     0      18.511   2.118   0.000  0.00  0.00     0.128 C 
HETATM   87  C   UNK     0      19.844   2.888   0.000  0.00  0.00     0.029 C 
ENDBRANCH  85  86
ENDBRANCH  69  83
ENDBRANCH   4  60
TORSDOF 19
