REMARK  4 active torsions:
REMARK  status: ('A' for Active; 'I' for Inactive)
REMARK    1  A    between atoms: N_4  and  C_7 
REMARK       I    between atoms: N_4  and  C_13 
REMARK    2  A    between atoms: N_5  and  N_6 
REMARK       I    between atoms: N_5  and  C_13 
REMARK    3  A    between atoms: N_5  and  C_14 
REMARK    4  A    between atoms: C_14  and  C_15 
ROOT
HETATM    1  O   UNK     0       7.081  -0.385   0.000  0.00  0.00    -0.147 OA
HETATM    2  N   UNK     0       4.414  -0.385   0.000  0.00  0.00    -0.212 NA
HETATM    3  N   UNK     0       5.748   1.925   0.000  0.00  0.00    -0.187 N 
HETATM    4  C   UNK     0       5.748   0.385   0.000  0.00  0.00     0.299 C 
ENDROOT
BRANCH   2   5
HETATM    5  C   UNK     0       4.414  -1.925   0.000  0.00  0.00     0.041 A 
HETATM    6  C   UNK     0       3.080  -2.695   0.000  0.00  0.00     0.042 A 
HETATM    7  C   UNK     0       3.080  -4.235   0.000  0.00  0.00     0.006 A 
HETATM    8  C   UNK     0       4.414  -5.005   0.000  0.00  0.00     0.001 A 
HETATM    9  C   UNK     0       5.748  -4.235   0.000  0.00  0.00     0.006 A 
HETATM   10  C   UNK     0       5.748  -2.695   0.000  0.00  0.00     0.042 A 
ENDBRANCH   2   5
BRANCH   3  11
HETATM   11  N   UNK     0       4.414   2.695   0.000  0.00  0.00    -0.008 NA
HETATM   12  O   UNK     0       4.414   4.235   0.000  0.00  0.00    -0.041 OA
ENDBRANCH   3  11
BRANCH   3  13
HETATM   13  C   UNK     0       7.081   2.695   0.000  0.00  0.00     0.151 C 
BRANCH  13  14
HETATM   14  C   UNK     0       7.081   4.235   0.000  0.00  0.00     0.121 C 
HETATM   15 Cl   UNK     0       8.415   5.005   0.000  0.00  0.00    -0.112 Cl
ENDBRANCH  13  14
ENDBRANCH   3  13
TORSDOF 4
