REMARK  0 active torsions:
REMARK  status: ('A' for Active; 'I' for Inactive)
ROOT
HETATM    1  C   UNK     0      -1.799  -2.124   0.000  0.00  0.00     0.112 A 
HETATM    2  C   UNK     0       1.175  -2.137   0.000  0.00  0.00     0.007 A 
HETATM    3  C   UNK     0       2.274  -1.050   0.000  0.00  0.00     0.045 A 
HETATM    4  C   UNK     0       2.674   0.437   0.000  0.00  0.00     0.120 A 
HETATM    5  C   UNK     0       2.274   1.924   0.000  0.00  0.00     0.099 A 
HETATM    6  N   UNK     0       1.187   3.024   0.000  0.00  0.00    -0.302 N 
HETATM    7  C   UNK     0      -0.300   3.424   0.000  0.00  0.00     0.190 A 
HETATM    8  C   UNK     0      -1.787   3.024   0.000  0.00  0.00     0.018 A 
HETATM    9  C   UNK     0      -2.887   1.937   0.000  0.00  0.00     0.002 A 
HETATM   10  C   UNK     0      -3.286   0.450   0.000  0.00  0.00     0.074 A 
HETATM   11  O   UNK     0      -2.887  -1.037   0.000  0.00  0.00    -0.313 OA
HETATM   12  O   UNK     0      -0.287   4.961   0.000  0.00  0.00    -0.171 OA
HETATM   13  C   UNK     0      -2.187   4.524   0.000  0.00  0.00     0.036 A 
HETATM   14  C   UNK     0      -3.674   4.923   0.000  0.00  0.00     0.057 A 
HETATM   15  C   UNK     0      -4.761   3.836   0.000  0.00  0.00     0.100 A 
HETATM   16  C   UNK     0      -4.374   2.349   0.000  0.00  0.00     0.080 A 
HETATM   17  F   UNK     0      -6.248   4.236   0.000  0.00  0.00    -0.213 F 
HETATM   18  C   UNK     0       1.962   4.349   0.000  0.00  0.00     0.133 C 
HETATM   19  C   UNK     0      -4.823   0.462   0.000  0.00  0.00     0.058 C 
HETATM   20  C   UNK     0       3.561  -1.899   0.000  0.00  0.00     0.133 A 
HETATM   21  N   UNK     0       4.761  -0.925   0.000  0.00  0.00    -0.240 N 
HETATM   22  N   UNK     0       4.211   0.437   0.000  0.00  0.00    -0.167 NA
HETATM   23  C   UNK     0      -1.799  -3.811   0.000  0.00  0.00     0.170 A 
HETATM   24  N   UNK     0      -0.337  -4.661   0.000  0.00  0.00    -0.229 NA
HETATM   25  C   UNK     0       1.112  -3.811   0.000  0.00  0.00     0.097 A 
HETATM   26  C   UNK     0      -0.337  -1.287   0.000  0.00  0.00     0.082 A 
HETATM   27  N   UNK     0      -3.261  -4.661   0.000  0.00  0.00    -0.078 NA
HETATM   28  C   UNK     0       6.248  -1.312   0.000  0.00  0.00     0.155 C 
HETATM   29  C   UNK     0       3.636  -3.424   0.000  0.00  0.00     0.040 C 
HETATM   30  N   UNK     0       3.711  -4.961   0.000  0.00  0.00    -0.094 N 
ENDROOT
TORSDOF 0
