REMARK  0 active torsions:
REMARK  status: ('A' for Active; 'I' for Inactive)
ROOT
HETATM    1  C   UNK     0       2.943  -0.723   0.000  0.00  0.00     0.026 C 
HETATM    2  C   UNK     0      -5.706   3.208   0.000  0.00  0.00     0.033 C 
HETATM    3  C   UNK     0      -5.747   5.843   0.000  0.00  0.00     0.146 A 
HETATM    4  C   UNK     0       2.366   4.799   0.000  0.00  0.00     0.012 A 
HETATM    5  C   UNK     0      -2.330   5.550   0.000  0.00  0.00    -0.031 A 
HETATM    6  C   UNK     0       5.398   4.257   0.000  0.00  0.00     0.034 A 
HETATM    7  C   UNK     0       0.850   5.071   0.000  0.00  0.00    -0.072 A 
HETATM    8  C   UNK     0      -2.351   1.771   0.000  0.00  0.00    -0.006 A 
HETATM    9  C   UNK     0       3.882   4.528   0.000  0.00  0.00     0.009 A 
HETATM   10  C   UNK     0      -0.666   5.342   0.000  0.00  0.00     0.021 A 
HETATM   11  C   UNK     0      -3.626   2.635   0.000  0.00  0.00     0.002 A 
HETATM   12  C   UNK     0       0.904   0.996   0.000  0.00  0.00     0.015 A 
HETATM   13  C   UNK     0       4.929   1.632   0.000  0.00  0.00     0.054 A 
HETATM   14  C   UNK     0       2.420   0.725   0.000  0.00  0.00    -0.052 A 
HETATM   15  C   UNK     0      -4.713   4.385   0.000  0.00  0.00     0.122 A 
HETATM   16  C   UNK     0      -4.361   6.514   0.000  0.00  0.00     0.182 A 
HETATM   17  C   UNK     0       5.921   2.809   0.000  0.00  0.00     0.156 A 
HETATM   18  C   UNK     0       0.381   2.445   0.000  0.00  0.00     0.016 A 
HETATM   19  C   UNK     0       1.374   3.622   0.000  0.00  0.00     0.038 A 
HETATM   20  C   UNK     0      -1.135   2.716   0.000  0.00  0.00     0.017 A 
HETATM   21  C   UNK     0       3.413   1.903   0.000  0.00  0.00    -0.050 A 
HETATM   22  C   UNK     0       2.890   3.351   0.000  0.00  0.00     0.015 A 
HETATM   23  C   UNK     0      -1.658   4.164   0.000  0.00  0.00     0.019 A 
HETATM   24  C   UNK     0      -3.198   4.114   0.000  0.00  0.00     0.031 A 
HETATM   25  O   UNK     0      -5.988   5.250   0.000  0.00  0.00    -0.329 OA
HETATM   26  O   UNK     0      -4.250   8.050   0.000  0.00  0.00    -0.186 OA
HETATM   27  O   UNK     0       7.437   2.538   0.000  0.00  0.00    -0.223 OA
HETATM   28  O   UNK     0      -3.086   5.650   0.000  0.00  0.00     0.000 OA
ENDROOT
TORSDOF 0
