REMARK  8 active torsions:
REMARK  status: ('A' for Active; 'I' for Inactive)
REMARK    1  A    between atoms: C_1  and  N_2 
REMARK    2  A    between atoms: N_2  and  C_5 
REMARK    3  A    between atoms: N_2  and  C_6 
REMARK    4  A    between atoms: C_5  and  C_18 
REMARK    5  A    between atoms: C_6  and  C_16 
REMARK    6  A    between atoms: C_9  and  C_10 
REMARK    7  A    between atoms: C_10  and  C_11 
REMARK    8  A    between atoms: C_11  and  C_12 
ROOT
HETATM    1  C   UNK     0      23.086 -23.392   0.000  0.00  0.00     0.010 A 
HETATM    2  C   UNK     0      24.417 -24.153   0.000  0.00  0.00     0.039 A 
HETATM    3  C   UNK     0      23.086 -21.849   0.000  0.00  0.00     0.039 A 
HETATM    4  C   UNK     0      25.755 -23.392   0.000  0.00  0.00     0.006 A 
HETATM    5  C   UNK     0      24.417 -21.075   0.000  0.00  0.00     0.006 A 
HETATM    6  C   UNK     0      25.748 -21.862   0.000  0.00  0.00     0.003 A 
ENDROOT
BRANCH   1   7
HETATM    7  N   UNK     0      21.755 -24.153   0.000  0.00  0.00    -0.352 N 
BRANCH   7   8
HETATM    8  C   UNK     0      21.755 -25.696   0.000  0.00  0.00     0.118 C 
BRANCH   8   9
HETATM    9  C   UNK     0      23.108 -26.477   0.000  0.00  0.00     0.119 C 
HETATM   10 Cl   UNK     0      23.108 -28.021   0.000  0.00  0.00    -0.112 Cl
ENDBRANCH   8   9
ENDBRANCH   7   8
BRANCH   7  11
HETATM   11  C   UNK     0      20.417 -23.392   0.000  0.00  0.00     0.118 C 
BRANCH  11  12
HETATM   12  C   UNK     0      20.413 -21.880   0.000  0.00  0.00     0.119 C 
HETATM   13 Cl   UNK     0      19.066 -21.106   0.000  0.00  0.00    -0.112 Cl
ENDBRANCH  11  12
ENDBRANCH   7  11
ENDBRANCH   1   7
BRANCH   6  14
HETATM   14  C   UNK     0      27.080 -21.088   0.000  0.00  0.00     0.051 C 
BRANCH  14  15
HETATM   15  C   UNK     0      28.411 -21.862   0.000  0.00  0.00     0.387 C 
HETATM   16  N   UNK     0      28.411 -23.398   0.000  0.00  0.00     0.628 N 
BRANCH  15  17
HETATM   17  C   UNK     0      29.748 -21.088   0.000  0.00  0.00     0.224 C 
HETATM   18  O   UNK     0      31.073 -21.862   0.000  0.00  0.00    -0.646 OA
HETATM   19  O   UNK     0      29.748 -19.545   0.000  0.00  0.00    -0.646 OA
ENDBRANCH  15  17
ENDBRANCH  14  15
ENDBRANCH   6  14
TORSDOF 8
