REMARK  0 active torsions:
REMARK  status: ('A' for Active; 'I' for Inactive)
ROOT
HETATM    1  S   UNK     0       4.414   2.787   0.000  0.00  0.00    -0.056 SA
HETATM    2  N   UNK     0       7.205   0.947   0.000  0.00  0.00    -0.239 NA
HETATM    3  N   UNK     0       4.414  -1.833   0.000  0.00  0.00    -0.225 NA
HETATM    4  N   UNK     0       7.205  -1.532   0.000  0.00  0.00    -0.225 NA
HETATM    5  N   UNK     0       3.080   0.477   0.000  0.00  0.00    -0.232 NA
HETATM    6  C   UNK     0       5.747   0.477   0.000  0.00  0.00     0.141 A 
HETATM    7  C   UNK     0       5.747  -1.063   0.000  0.00  0.00     0.177 A 
HETATM    8  C   UNK     0       4.414   1.247   0.000  0.00  0.00     0.153 A 
HETATM    9  C   UNK     0       8.103  -0.293   0.000  0.00  0.00     0.253 A 
HETATM   10  C   UNK     0       3.080  -1.063   0.000  0.00  0.00     0.253 A 
ENDROOT
TORSDOF 0
