REMARK  3 active torsions:
REMARK  status: ('A' for Active; 'I' for Inactive)
REMARK    1  A    between atoms: N_19  and  C_31 
REMARK    2  A    between atoms: N_20  and  C_24 
REMARK    3  A    between atoms: C_33  and  O_34 
ROOT
HETATM    1  O   UNK     0       0.044  -0.213   0.000  0.00  0.00    -0.294 OA
HETATM    2  C   UNK     0       0.044  -3.293   0.000  0.00  0.00     0.087 A 
HETATM    3  C   UNK     0       1.378  -2.523   0.000  0.00  0.00     0.053 A 
HETATM    4  C   UNK     0       1.378  -0.983   0.000  0.00  0.00     0.166 A 
HETATM    5  N   UNK     0       0.044  -4.833   0.000  0.00  0.00    -0.303 N 
HETATM    6  C   UNK     0      -1.289  -5.603   0.000  0.00  0.00     0.133 C 
HETATM    7  C   UNK     0      -1.289  -0.983   0.000  0.00  0.00     0.211 A 
HETATM    8  C   UNK     0      -2.829  -0.983   0.000  0.00  0.00     0.062 C 
HETATM    9  C   UNK     0      -1.289  -2.523   0.000  0.00  0.00     0.133 A 
HETATM   10  C   UNK     0       1.378  -5.603   0.000  0.00  0.00     0.190 A 
HETATM   11  O   UNK     0       1.378  -7.143   0.000  0.00  0.00    -0.171 OA
HETATM   12  C   UNK     0       2.712  -4.833   0.000  0.00  0.00     0.016 A 
HETATM   13  C   UNK     0       5.379  -3.293   0.000  0.00  0.00     0.005 A 
HETATM   14  C   UNK     0       5.379  -4.833   0.000  0.00  0.00     0.005 A 
HETATM   15  C   UNK     0       4.045  -2.523   0.000  0.00  0.00     0.026 A 
HETATM   16  C   UNK     0       4.045  -5.603   0.000  0.00  0.00     0.030 A 
HETATM   17  C   UNK     0       2.712  -3.293   0.000  0.00  0.00    -0.018 A 
ENDROOT
BRANCH   9  18
HETATM   18  O   UNK     0      -2.623  -3.293   0.000  0.00  0.00    -0.327 OA
HETATM   19  C   UNK     0      -3.956  -2.523   0.000  0.00  0.00     0.181 C 
ENDBRANCH   9  18
BRANCH   7  20
HETATM   20  N   UNK     0      -1.800   0.962   0.000  0.00  0.00    -0.306 N 
HETATM   21  C   UNK     0      -0.770   2.106   0.000  0.00  0.00     0.077 A 
HETATM   22  C   UNK     0       0.770   2.106   0.000  0.00  0.00     0.081 A 
HETATM   23  C   UNK     0      -1.540   3.440   0.000  0.00  0.00     0.012 A 
HETATM   24  N   UNK     0       1.800   0.962   0.000  0.00  0.00    -0.291 N 
HETATM   25  C   UNK     0       1.540   3.440   0.000  0.00  0.00     0.018 A 
HETATM   26  C   UNK     0       3.207   1.588   0.000  0.00  0.00     0.039 A 
HETATM   27  C   UNK     0       4.614   0.962   0.000  0.00  0.00     0.044 A 
HETATM   28  C   UNK     0       3.046   3.120   0.000  0.00  0.00    -0.009 A 
HETATM   29  C   UNK     0       5.860   1.867   0.000  0.00  0.00     0.007 A 
HETATM   30  C   UNK     0       5.699   3.399   0.000  0.00  0.00     0.005 A 
HETATM   31  C   UNK     0       4.292   4.025   0.000  0.00  0.00     0.028 A 
HETATM   32  C   UNK     0       0.770   4.774   0.000  0.00  0.00     0.043 A 
HETATM   33  C   UNK     0      -0.770   4.774   0.000  0.00  0.00     0.007 A 
HETATM   34  C   UNK     0       1.246   6.238   0.000  0.00  0.00     0.209 A 
HETATM   35  C   UNK     0      -1.246   6.238   0.000  0.00  0.00     0.154 A 
HETATM   36  N   UNK     0       0.000   7.143   0.000  0.00  0.00    -0.241 NA
HETATM   37  O   UNK     0       2.733   6.637   0.000  0.00  0.00    -0.170 OA
HETATM   38  C   UNK     0      -3.046   3.120   0.000  0.00  0.00    -0.009 A 
HETATM   39  C   UNK     0      -3.207   1.588   0.000  0.00  0.00     0.035 A 
HETATM   40  C   UNK     0      -4.292   4.025   0.000  0.00  0.00     0.028 A 
HETATM   41  C   UNK     0      -4.614   0.962   0.000  0.00  0.00     0.044 A 
HETATM   42  C   UNK     0      -5.860   1.867   0.000  0.00  0.00     0.007 A 
HETATM   43  C   UNK     0      -5.699   3.399   0.000  0.00  0.00     0.005 A 
ENDBRANCH   7  20
TORSDOF 3
