REMARK  12 active torsions:
REMARK  status: ('A' for Active; 'I' for Inactive)
REMARK    1  A    between atoms: C_11  and  N_19 
REMARK    2  A    between atoms: C_12  and  N_20 
REMARK    3  A    between atoms: N_19  and  C_21 
REMARK    4  A    between atoms: N_20  and  C_23 
REMARK    5  A    between atoms: C_21  and  C_22 
REMARK    6  A    between atoms: C_22  and  N_25 
REMARK    7  A    between atoms: C_23  and  C_24 
REMARK    8  A    between atoms: C_24  and  N_26 
REMARK    9  A    between atoms: N_25  and  C_27 
REMARK   10  A    between atoms: N_26  and  C_29 
REMARK   11  A    between atoms: C_27  and  C_28 
REMARK   12  A    between atoms: C_29  and  C_30 
ROOT
HETATM    1  C   UNK     0      -6.002   1.540   0.000  0.00  0.00     0.111 A 
HETATM    2  C   UNK     0      -7.335   0.770   0.000  0.00  0.00     0.061 A 
HETATM    3  C   UNK     0      -7.335  -0.770   0.000  0.00  0.00     0.061 A 
HETATM    4  C   UNK     0      -6.002  -1.540   0.000  0.00  0.00     0.111 A 
HETATM    5  C   UNK     0      -4.668  -0.770   0.000  0.00  0.00     0.050 A 
HETATM    6  C   UNK     0      -4.668   0.770   0.000  0.00  0.00     0.050 A 
HETATM    7  C   UNK     0      -3.334   1.540   0.000  0.00  0.00     0.134 A 
HETATM    8  C   UNK     0      -3.334  -1.540   0.000  0.00  0.00     0.134 A 
HETATM    9  C   UNK     0      -2.000  -0.770   0.000  0.00  0.00     0.042 A 
HETATM   10  C   UNK     0      -2.000   0.770   0.000  0.00  0.00     0.042 A 
HETATM   11  C   UNK     0      -0.667   1.540   0.000  0.00  0.00     0.056 A 
HETATM   12  C   UNK     0      -0.667  -1.540   0.000  0.00  0.00     0.056 A 
HETATM   13  C   UNK     0       0.667  -0.770   0.000  0.00  0.00     0.052 A 
HETATM   14  C   UNK     0       0.667   0.770   0.000  0.00  0.00     0.052 A 
HETATM   15  O   UNK     0      -6.002   3.080   0.000  0.00  0.00    -0.195 OA
HETATM   16  O   UNK     0      -6.002  -3.080   0.000  0.00  0.00    -0.195 OA
HETATM   17  O   UNK     0      -3.334   3.080   0.000  0.00  0.00    -0.190 OA
HETATM   18  O   UNK     0      -3.334  -3.080   0.000  0.00  0.00    -0.190 OA
ENDROOT
BRANCH  11  19
HETATM   19  N   UNK     0      -0.667   3.080   0.000  0.00  0.00    -0.273 NA
BRANCH  19  20
HETATM   20  C   UNK     0       0.667   3.850   0.000  0.00  0.00     0.151 C 
BRANCH  20  21
HETATM   21  C   UNK     0       2.001   3.080   0.000  0.00  0.00     0.146 C 
BRANCH  21  22
HETATM   22  N   UNK     0       3.334   3.850   0.000  0.00  0.00    -0.291 NA
BRANCH  22  23
HETATM   23  C   UNK     0       4.668   3.080   0.000  0.00  0.00     0.155 C 
BRANCH  23  24
HETATM   24  C   UNK     0       6.001   3.850   0.000  0.00  0.00     0.208 C 
HETATM   25  O   UNK     0       7.335   3.080   0.000  0.00  0.00    -0.218 OA
ENDBRANCH  23  24
ENDBRANCH  22  23
ENDBRANCH  21  22
ENDBRANCH  20  21
ENDBRANCH  19  20
ENDBRANCH  11  19
BRANCH  12  26
HETATM   26  N   UNK     0      -0.667  -3.080   0.000  0.00  0.00    -0.273 NA
BRANCH  26  27
HETATM   27  C   UNK     0       0.667  -3.850   0.000  0.00  0.00     0.151 C 
BRANCH  27  28
HETATM   28  C   UNK     0       2.001  -3.080   0.000  0.00  0.00     0.146 C 
BRANCH  28  29
HETATM   29  N   UNK     0       3.334  -3.850   0.000  0.00  0.00    -0.291 NA
BRANCH  29  30
HETATM   30  C   UNK     0       4.668  -3.080   0.000  0.00  0.00     0.155 C 
BRANCH  30  31
HETATM   31  C   UNK     0       6.001  -3.850   0.000  0.00  0.00     0.208 C 
HETATM   32  O   UNK     0       7.335  -3.080   0.000  0.00  0.00    -0.218 OA
ENDBRANCH  30  31
ENDBRANCH  29  30
ENDBRANCH  28  29
ENDBRANCH  27  28
ENDBRANCH  26  27
ENDBRANCH  12  26
TORSDOF 12
