REMARK  2 active torsions:
REMARK  status: ('A' for Active; 'I' for Inactive)
REMARK    1  A    between atoms: C_19  and  O_20 
REMARK    2  A    between atoms: O_20  and  C_21 
ROOT
HETATM    1  C   UNK     0      -0.584  -0.834   0.000  0.00  0.00     0.046 A 
HETATM    2  C   UNK     0      -0.584  -2.374   0.000  0.00  0.00     0.085 A 
HETATM    3  C   UNK     0      -1.917  -0.064   0.000  0.00  0.00     0.145 A 
HETATM    4  C   UNK     0      -1.917  -3.144   0.000  0.00  0.00     0.143 A 
HETATM    5  C   UNK     0      -3.251  -0.834   0.000  0.00  0.00     0.093 A 
HETATM    6  C   UNK     0      -3.251  -2.374   0.000  0.00  0.00     0.020 A 
HETATM    7  C   UNK     0       0.881  -0.358   0.000  0.00  0.00     0.048 A 
HETATM    8  C   UNK     0       1.786  -1.604   0.000  0.00  0.00     0.207 A 
HETATM    9  N   UNK     0       0.881  -2.850   0.000  0.00  0.00    -0.322 N 
HETATM   10  C   UNK     0       3.251  -2.080   0.000  0.00  0.00     0.361 A 
HETATM   11  C   UNK     0       3.251  -3.620   0.000  0.00  0.00     0.337 A 
HETATM   12  C   UNK     0       1.786  -4.096   0.000  0.00  0.00     0.132 A 
HETATM   13  O   UNK     0      -1.917   1.476   0.000  0.00  0.00    -0.189 OA
HETATM   14  O   UNK     0      -1.917  -4.684   0.000  0.00  0.00    -0.189 OA
HETATM   15  N   UNK     0      -4.585  -0.064   0.000  0.00  0.00    -0.099 NA
HETATM   16  N   UNK     0       4.585  -2.850   0.000  0.00  0.00     0.327 N 
HETATM   17  C   UNK     0      -4.585  -3.144   0.000  0.00  0.00     0.034 C 
HETATM   18  O   UNK     0       2.691  -0.358   0.000  0.00  0.00    -0.328 OA
HETATM   19  C   UNK     0       1.357   1.106   0.000  0.00  0.00     0.106 A 
HETATM   20  C   UNK     0       2.706   1.287   0.000  0.00  0.00     0.195 A 
ENDROOT
BRANCH  19  21
HETATM   21  O   UNK     0       0.326   2.251   0.000  0.00  0.00    -0.277 OA
BRANCH  21  22
HETATM   22  C   UNK     0       0.802   3.715   0.000  0.00  0.00     0.584 C 
HETATM   23  N   UNK     0       2.309   4.036   0.000  0.00  0.00     0.689 N 
HETATM   24  O   UNK     0      -0.228   4.860   0.000  0.00  0.00    -0.150 OA
ENDBRANCH  21  22
ENDBRANCH  19  21
TORSDOF 2
