REMARK  4 active torsions:
REMARK  status: ('A' for Active; 'I' for Inactive)
REMARK    1  A    between atoms: C_15  and  N_16 
REMARK    2  A    between atoms: C_29  and  O_33 
REMARK    3  A    between atoms: O_33  and  C_34 
REMARK    4  A    between atoms: C_34  and  C_35 
ROOT
HETATM    1  C   UNK     0      -4.001  -5.390   0.000  0.00  0.00     0.039 A 
HETATM    2  C   UNK     0      -2.667  -4.620   0.000  0.00  0.00     0.006 A 
HETATM    3  O   UNK     0      -2.667  -3.080   0.000  0.00  0.00     0.000 OA
HETATM    4  C   UNK     0      -1.334  -2.310   0.000  0.00  0.00    -0.005 A 
HETATM    5  C   UNK     0       0.000  -3.080   0.000  0.00  0.00     0.072 A 
HETATM    6  C   UNK     0       1.334  -2.310   0.000  0.00  0.00     0.056 A 
HETATM    7  C   UNK     0       1.334  -0.770   0.000  0.00  0.00     0.015 A 
HETATM    8  C   UNK     0       0.000  -0.000   0.000  0.00  0.00     0.074 A 
HETATM    9  C   UNK     0      -1.334  -0.770   0.000  0.00  0.00     0.062 A 
HETATM   10  N   UNK     0      -2.667   0.000   0.000  0.00  0.00    -0.225 NA
HETATM   11  C   UNK     0      -4.001  -0.770   0.000  0.00  0.00     0.209 A 
HETATM   12  O   UNK     0      -5.335   0.000   0.000  0.00  0.00    -0.170 OA
HETATM   13  C   UNK     0      -4.001  -2.310   0.000  0.00  0.00     0.027 A 
HETATM   14  C   UNK     0      -5.335  -3.080   0.000  0.00  0.00     0.069 A 
HETATM   15  C   UNK     0      -5.335  -4.620   0.000  0.00  0.00     0.015 A 
HETATM   16  C   UNK     0       2.667  -0.000   0.000  0.00  0.00     0.077 A 
HETATM   17  C   UNK     0       4.001  -0.770   0.000  0.00  0.00     0.043 A 
HETATM   18  C   UNK     0       4.001  -2.310   0.000  0.00  0.00     0.154 A 
HETATM   19  N   UNK     0       2.667  -3.080   0.000  0.00  0.00    -0.270 NA
HETATM   20  C   UNK     0       5.335  -0.000   0.000  0.00  0.00     0.196 A 
HETATM   21  N   UNK     0       6.668   0.770   0.000  0.00  0.00     0.088 N 
HETATM   22  N   UNK     0       2.667   1.540   0.000  0.00  0.00    -0.252 NA
HETATM   23  C   UNK     0       4.001   2.310   0.000  0.00  0.00     0.074 A 
HETATM   24  C   UNK     0       4.001   3.850   0.000  0.00  0.00     0.046 A 
HETATM   25  C   UNK     0       5.335   4.620   0.000  0.00  0.00     0.039 A 
HETATM   26  C   UNK     0       6.668   3.850   0.000  0.00  0.00     0.163 A 
HETATM   27  C   UNK     0       6.668   2.310   0.000  0.00  0.00     0.323 A 
HETATM   28  C   UNK     0       5.335   1.540   0.000  0.00  0.00     0.300 A 
HETATM   29 Cl   UNK     0       8.002   1.540   0.000  0.00  0.00     0.051 Cl
ENDROOT
BRANCH  26  30
HETATM   30  O   UNK     0       8.002   4.620   0.000  0.00  0.00    -0.347 OA
BRANCH  30  31
HETATM   31  C   UNK     0       8.002   6.160   0.000  0.00  0.00     0.183 C 
BRANCH  31  32
HETATM   32  C   UNK     0       9.336   6.930   0.000  0.00  0.00     0.061 A 
HETATM   33  C   UNK     0       9.336   8.470   0.000  0.00  0.00     0.043 A 
HETATM   34  C   UNK     0      10.669   9.240   0.000  0.00  0.00     0.008 A 
HETATM   35  C   UNK     0      12.003   8.470   0.000  0.00  0.00     0.027 A 
HETATM   36  C   UNK     0      12.003   6.930   0.000  0.00  0.00     0.125 A 
HETATM   37  N   UNK     0      10.669   6.160   0.000  0.00  0.00    -0.277 NA
ENDBRANCH  31  32
ENDBRANCH  30  31
ENDBRANCH  26  30
BRANCH  15  38
HETATM   38  N   UNK     0      -6.668  -5.390   0.000  0.00  0.00    -0.351 N 
HETATM   39  C   UNK     0      -6.668  -6.930   0.000  0.00  0.00     0.125 C 
HETATM   40  C   UNK     0      -8.002  -4.620   0.000  0.00  0.00     0.125 C 
ENDBRANCH  15  38
TORSDOF 4
