REMARK  2 active torsions:
REMARK  status: ('A' for Active; 'I' for Inactive)
REMARK    1  A    between atoms: C_2  and  N_7 
REMARK    2  A    between atoms: C_4  and  C_36 
ROOT
HETATM    1  C   UNK     0      -1.333   1.657   0.000  0.00  0.00     0.086 A 
HETATM    2  C   UNK     0      -2.667   2.427   0.000  0.00  0.00     0.023 A 
HETATM    3  C   UNK     0      -4.000   1.657   0.000  0.00  0.00     0.071 A 
HETATM    4  C   UNK     0      -4.000   0.117   0.000  0.00  0.00     0.071 A 
HETATM    5  C   UNK     0      -2.667  -0.653   0.000  0.00  0.00     0.071 A 
HETATM    6  C   UNK     0      -1.333   0.117   0.000  0.00  0.00     0.082 A 
HETATM    7  N   UNK     0       0.000  -0.653   0.000  0.00  0.00    -0.223 NA
HETATM    8  C   UNK     0       1.334   0.117   0.000  0.00  0.00     0.205 A 
HETATM    9  C   UNK     0       2.668  -0.653   0.000  0.00  0.00     0.006 A 
HETATM   10  C   UNK     0       5.335  -0.653   0.000  0.00  0.00     0.028 A 
HETATM   11  C   UNK     0       4.001   0.117   0.000  0.00  0.00     0.030 A 
HETATM   12  C   UNK     0       2.668  -2.193   0.000  0.00  0.00     0.071 A 
HETATM   13  C   UNK     0       4.001  -2.963   0.000  0.00  0.00     0.074 A 
HETATM   14  C   UNK     0       5.335  -2.193   0.000  0.00  0.00    -0.029 A 
HETATM   15  C   UNK     0       6.669  -2.963   0.000  0.00  0.00     0.028 C 
HETATM   16  N   UNK     0       4.001  -4.503   0.000  0.00  0.00    -0.064 NA
HETATM   17  C   UNK     0       2.668  -5.273   0.000  0.00  0.00     0.745 A 
HETATM   18  N   UNK     0       2.668  -6.813   0.000  0.00  0.00    -0.086 NA
HETATM   19  C   UNK     0       1.334  -7.583   0.000  0.00  0.00     0.151 A 
HETATM   20  C   UNK     0       0.000  -6.813   0.000  0.00  0.00     0.073 A 
HETATM   21  C   UNK     0       0.000  -5.273   0.000  0.00  0.00     0.073 A 
HETATM   22  N   UNK     0       1.334  -4.503   0.000  0.00  0.00    -0.065 NA
HETATM   23  C   UNK     0      -1.333  -4.503   0.000  0.00  0.00    -0.008 A 
HETATM   24  C   UNK     0      -1.333  -2.963   0.000  0.00  0.00     0.125 A 
HETATM   25  C   UNK     0      -2.667  -5.273   0.000  0.00  0.00     0.027 A 
HETATM   26  C   UNK     0      -4.000  -4.503   0.000  0.00  0.00     0.029 A 
HETATM   27  C   UNK     0      -4.000  -2.963   0.000  0.00  0.00     0.102 A 
HETATM   28  N   UNK     0      -2.667  -2.193   0.000  0.00  0.00    -0.344 N 
HETATM   29  O   UNK     0       1.334   1.657   0.000  0.00  0.00    -0.170 OA
ENDROOT
BRANCH   2  30
HETATM   30  N   UNK     0      -2.667   3.967   0.000  0.00  0.00    -0.323 N 
HETATM   31  C   UNK     0      -1.421   4.872   0.000  0.00  0.00     0.397 A 
HETATM   32  N   UNK     0      -1.897   6.337   0.000  0.00  0.00     0.364 N 
HETATM   33  C   UNK     0      -3.437   6.337   0.000  0.00  0.00     0.281 A 
HETATM   34  C   UNK     0      -3.913   4.872   0.000  0.00  0.00     0.139 A 
HETATM   35  C   UNK     0      -4.342   7.583   0.000  0.00  0.00     0.040 C 
ENDBRANCH   2  30
BRANCH   4  36
HETATM   36  C   UNK     0      -5.334  -0.653   0.000  0.00  0.00     0.417 C 
HETATM   37  F   UNK     0      -5.331  -2.202   0.000  0.00  0.00    -0.166 F 
HETATM   38  F   UNK     0      -6.669   0.119   0.000  0.00  0.00    -0.166 F 
HETATM   39  F   UNK     0      -6.669  -1.422   0.000  0.00  0.00    -0.166 F 
ENDBRANCH   4  36
TORSDOF 2
