REMARK  1 active torsions:
REMARK  status: ('A' for Active; 'I' for Inactive)
REMARK    1  A    between atoms: N_8  and  C_16 
ROOT
HETATM    1  F   UNK     0       5.541   3.219   0.000  0.00  0.00    -0.154 F 
HETATM    2  F   UNK     0       8.621   3.219   0.000  0.00  0.00    -0.166 F 
HETATM    3  F   UNK     0       7.081   4.759   0.000  0.00  0.00    -0.166 F 
HETATM    4  O   UNK     0       3.080   0.909   0.000  0.00  0.00    -0.055 OA
HETATM    5  O   UNK     0       4.414   3.219   0.000  0.00  0.00    -0.068 OA
HETATM    6  N   UNK     0       4.414   1.679   0.000  0.00  0.00    -0.061 N 
HETATM    7  C   UNK     0       8.415  -0.631   0.000  0.00  0.00     0.029 A 
HETATM    8  C   UNK     0       8.415   0.909   0.000  0.00  0.00     0.071 A 
HETATM    9  C   UNK     0       7.081  -1.401   0.000  0.00  0.00     0.046 A 
HETATM   10  C   UNK     0       7.081   1.679   0.000  0.00  0.00     0.071 A 
HETATM   11  C   UNK     0       5.748   0.909   0.000  0.00  0.00     0.096 A 
HETATM   12  C   UNK     0       5.748  -0.631   0.000  0.00  0.00     0.054 A 
HETATM   13  C   UNK     0       7.081   3.219   0.000  0.00  0.00     0.417 C 
ENDROOT
BRANCH   7  14
HETATM   14  N   UNK     0       9.748  -1.401   0.000  0.00  0.00    -0.258 N 
HETATM   15  C   UNK     0       9.910  -2.933   0.000  0.00  0.00     0.197 A 
HETATM   16  O   UNK     0       8.765  -3.963   0.000  0.00  0.00    -0.173 OA
HETATM   17  C   UNK     0      11.416  -3.253   0.000  0.00  0.00     0.146 A 
HETATM   18  N   UNK     0      12.186  -1.919   0.000  0.00  0.00    -0.227 NA
HETATM   19  C   UNK     0      12.750  -4.023   0.000  0.00  0.00     0.033 C 
HETATM   20  C   UNK     0      11.096  -4.759   0.000  0.00  0.00     0.033 C 
HETATM   21  C   UNK     0      11.156  -0.775   0.000  0.00  0.00     0.282 A 
HETATM   22  O   UNK     0      11.476   0.732   0.000  0.00  0.00    -0.149 OA
ENDBRANCH   7  14
TORSDOF 1
