REMARK  6 active torsions:
REMARK  status: ('A' for Active; 'I' for Inactive)
REMARK    1  A    between atoms: C_6  and  N_25 
REMARK    2  A    between atoms: C_8  and  C_9 
REMARK    3  A    between atoms: C_22  and  C_37 
REMARK       I    between atoms: N_25  and  C_26 
REMARK    4  A    between atoms: C_26  and  C_29 
REMARK    5  A    between atoms: C_29  and  N_30 
REMARK    6  A    between atoms: C_37  and  O_39 
ROOT
HETATM    1  C   UNK     0       2.779   0.809   0.000  0.00  0.00     0.046 A 
HETATM    2  C   UNK     0       1.393   1.579   0.000  0.00  0.00     0.051 A 
HETATM    3  C   UNK     0       0.084   0.809   0.000  0.00  0.00     0.056 A 
HETATM    4  C   UNK     0       0.084  -0.731   0.000  0.00  0.00    -0.007 A 
HETATM    5  C   UNK     0       1.393  -1.502   0.000  0.00  0.00     0.066 A 
HETATM    6  C   UNK     0       2.779  -0.731   0.000  0.00  0.00     0.021 A 
HETATM    7  N   UNK     0      -1.225   1.502   0.000  0.00  0.00    -0.250 NA
HETATM    8  C   UNK     0      -2.457   0.654   0.000  0.00  0.00     0.080 A 
HETATM    9  C   UNK     0      -2.457  -0.886   0.000  0.00  0.00    -0.009 A 
HETATM   10  C   UNK     0      -3.766  -1.656   0.000  0.00  0.00     0.028 A 
HETATM   11  C   UNK     0      -3.766  -3.196   0.000  0.00  0.00     0.005 A 
HETATM   12  C   UNK     0      -2.457  -3.966   0.000  0.00  0.00     0.005 A 
HETATM   13  C   UNK     0      -1.071  -3.196   0.000  0.00  0.00     0.026 A 
HETATM   14  C   UNK     0      -1.071  -1.656   0.000  0.00  0.00    -0.027 A 
ENDROOT
BRANCH   8  15
HETATM   15  C   UNK     0      -3.843   1.348   0.000  0.00  0.00     0.059 A 
HETATM   16  C   UNK     0      -4.074   2.888   0.000  0.00  0.00     0.214 A 
HETATM   17  N   UNK     0      -5.615   3.196   0.000  0.00  0.00    -0.220 NA
HETATM   18  O   UNK     0      -2.996   3.966   0.000  0.00  0.00    -0.169 OA
HETATM   19  C   UNK     0      -6.385   1.810   0.000  0.00  0.00     0.080 A 
HETATM   20  C   UNK     0      -5.307   0.654   0.000  0.00  0.00     0.001 A 
HETATM   21  C   UNK     0      -7.848   1.425   0.000  0.00  0.00     0.019 A 
HETATM   22  C   UNK     0      -5.692  -0.809   0.000  0.00  0.00     0.033 A 
HETATM   23  C   UNK     0      -7.232  -1.193   0.000  0.00  0.00     0.035 A 
HETATM   24  C   UNK     0      -8.310  -0.038   0.000  0.00  0.00     0.029 A 
BRANCH  24  25
HETATM   25  C   UNK     0      -9.810  -0.378   0.000  0.00  0.00     0.224 C 
HETATM   26  O   UNK     0     -10.266  -1.846   0.000  0.00  0.00    -0.164 OA
BRANCH  25  27
HETATM   27  O   UNK     0     -10.854   0.751   0.000  0.00  0.00    -0.306 OA
HETATM   28  C   UNK     0     -12.354   0.412   0.000  0.00  0.00     0.184 C 
ENDBRANCH  25  27
ENDBRANCH  24  25
ENDBRANCH   8  15
BRANCH   6  29
HETATM   29  N   UNK     0       4.276  -1.624   0.000  0.00  0.00    -0.314 N 
HETATM   30  C   UNK     0       5.618  -0.874   0.000  0.00  0.00     0.193 C 
HETATM   31  O   UNK     0       5.639   0.624   0.000  0.00  0.00    -0.174 OA
HETATM   32  C   UNK     0       4.254  -3.161   0.000  0.00  0.00     0.132 C 
BRANCH  30  33
HETATM   33  C   UNK     0       6.954  -1.670   0.000  0.00  0.00     0.171 C 
BRANCH  33  34
HETATM   34  N   UNK     0       8.312  -0.911   0.000  0.00  0.00    -0.359 N 
HETATM   35  C   UNK     0       8.332   0.593   0.000  0.00  0.00     0.121 A 
HETATM   36  C   UNK     0       9.674   1.344   0.000  0.00  0.00     0.121 A 
HETATM   37  N   UNK     0      10.996   0.557   0.000  0.00  0.00    -0.364 N 
HETATM   38  C   UNK     0      10.975  -0.948   0.000  0.00  0.00     0.121 A 
HETATM   39  C   UNK     0      12.354   1.316   0.000  0.00  0.00     0.121 C 
HETATM   40  C   UNK     0       9.633  -1.698   0.000  0.00  0.00     0.121 A 
ENDBRANCH  33  34
ENDBRANCH  30  33
ENDBRANCH   6  29
TORSDOF 6
