REMARK  3 active torsions:
REMARK  status: ('A' for Active; 'I' for Inactive)
REMARK    1  A    between atoms: N_5  and  C_13 
REMARK    2  A    between atoms: C_8  and  C_10 
REMARK    3  A    between atoms: C_16  and  C_19 
ROOT
HETATM    1  C   UNK     0       3.864   2.073   0.000  0.00  0.00     0.009 A 
HETATM    2  C   UNK     0       2.530   1.303   0.000  0.00  0.00     0.026 A 
HETATM    3  C   UNK     0       1.197   2.073   0.000  0.00  0.00    -0.001 A 
HETATM    4  C   UNK     0      -0.268   1.597   0.000  0.00  0.00     0.150 A 
HETATM    5  N   UNK     0      -1.173   2.843   0.000  0.00  0.00    -0.255 N 
HETATM    6  N   UNK     0      -0.268   4.089   0.000  0.00  0.00    -0.171 NA
HETATM    7  C   UNK     0       1.197   3.613   0.000  0.00  0.00     0.094 A 
HETATM    8  C   UNK     0       2.530   4.383   0.000  0.00  0.00     0.035 A 
HETATM    9  C   UNK     0       3.864   3.613   0.000  0.00  0.00     0.032 A 
ENDROOT
BRANCH   5  10
HETATM   10  C   UNK     0      -2.713   2.843   0.000  0.00  0.00     0.034 A 
HETATM   11  C   UNK     0      -3.483   1.509   0.000  0.00  0.00     0.045 A 
HETATM   12  C   UNK     0      -5.023   1.509   0.000  0.00  0.00     0.027 A 
HETATM   13  C   UNK     0      -5.793   2.843   0.000  0.00  0.00    -0.050 A 
HETATM   14  C   UNK     0      -5.023   4.177   0.000  0.00  0.00     0.027 A 
HETATM   15  C   UNK     0      -3.483   4.177   0.000  0.00  0.00     0.045 A 
BRANCH  13  16
HETATM   16  C   UNK     0      -7.333   2.843   0.000  0.00  0.00    -0.028 A 
HETATM   17  C   UNK     0      -8.103   1.509   0.000  0.00  0.00     0.025 A 
HETATM   18  C   UNK     0      -9.643   1.509   0.000  0.00  0.00     0.030 A 
HETATM   19  C   UNK     0     -10.413   2.843   0.000  0.00  0.00     0.121 A 
HETATM   20  N   UNK     0      -9.643   4.177   0.000  0.00  0.00    -0.291 NA
HETATM   21  C   UNK     0      -8.103   4.177   0.000  0.00  0.00     0.141 A 
ENDBRANCH  13  16
ENDBRANCH   5  10
BRANCH   8  22
HETATM   22  C   UNK     0       2.530   5.923   0.000  0.00  0.00     0.198 C 
HETATM   23  O   UNK     0       3.864   6.693   0.000  0.00  0.00    -0.175 OA
HETATM   24  N   UNK     0       1.197   6.693   0.000  0.00  0.00    -0.071 NA
ENDBRANCH   8  22
TORSDOF 3
