REMARK  8 active torsions:
REMARK  status: ('A' for Active; 'I' for Inactive)
REMARK    1  A    between atoms: C_5  and  O_26 
REMARK    2  A    between atoms: C_8  and  O_42 
REMARK    3  A    between atoms: C_23  and  C_24 
REMARK    4  A    between atoms: O_26  and  C_28 
REMARK    5  A    between atoms: O_42  and  C_51 
REMARK    6  A    between atoms: C_49  and  C_50 
REMARK    7  A    between atoms: C_49  and  C_51 
REMARK    8  A    between atoms: C_60  and  C_61 
ROOT
HETATM    1  C   UNK     0       1.579  -2.221   0.000  0.00  0.00     0.126 A 
HETATM    2  C   UNK     0       4.702  -1.492   0.000  0.00  0.00     0.021 A 
HETATM    3  C   UNK     0       5.882   0.573   0.000  0.00  0.00    -0.002 A 
HETATM    4  C   UNK     0       2.325   2.308   0.000  0.00  0.00     0.195 A 
HETATM    5  C   UNK     0       0.399   2.308   0.000  0.00  0.00     0.101 A 
HETATM    6  C   UNK     0      -0.677   1.197   0.000  0.00  0.00     0.003 A 
HETATM    7  C   UNK     0      -2.048   1.197   0.000  0.00  0.00     0.020 A 
HETATM    8  C   UNK     0      -2.741   0.000   0.000  0.00  0.00     0.100 A 
HETATM    9  C   UNK     0      -2.048  -1.197   0.000  0.00  0.00     0.031 A 
HETATM   10  C   UNK     0      -2.741   2.377   0.000  0.00  0.00     0.002 C 
HETATM   11  C   UNK     0       5.933  -2.395   0.000  0.00  0.00     0.037 A 
HETATM   12  O   UNK     0       4.692  -2.913   0.000  0.00  0.00     0.000 OA
HETATM   13  C   UNK     0       5.869  -3.621   0.000  0.00  0.00     0.153 A 
HETATM   14  C   UNK     0       7.241  -2.867   0.000  0.00  0.00     0.036 A 
HETATM   15  O   UNK     0       5.869  -4.949   0.000  0.00  0.00    -0.223 OA
HETATM   16  O   UNK     0       2.716   3.679   0.000  0.00  0.00    -0.217 OA
HETATM   17  O   UNK     0       1.495  -3.863   0.000  0.00  0.00    -0.312 OA
HETATM   18  C   UNK     0       0.161  -4.633   0.000  0.00  0.00     0.220 A 
HETATM   19  O   UNK     0      -1.172  -3.863   0.000  0.00  0.00    -0.170 OA
HETATM   20  C   UNK     0       3.505  -0.815   0.000  0.00  0.00     0.059 A 
HETATM   21  C   UNK     0       3.505   0.573   0.000  0.00  0.00     0.088 A 
HETATM   22  C   UNK     0       3.505   2.113   0.000  0.00  0.00     0.155 A 
HETATM   23  C   UNK     0      -0.677  -1.197   0.000  0.00  0.00     0.173 A 
HETATM   24  O   UNK     0      -0.677  -2.737   0.000  0.00  0.00    -0.212 OA
HETATM   25  C   UNK     0       1.334   0.770   0.000  0.00  0.00     0.010 A 
HETATM   26  C   UNK     0       1.334  -0.770   0.000  0.00  0.00     0.035 A 
HETATM   27  C   UNK     0       4.702   1.249   0.000  0.00  0.00     0.141 A 
HETATM   28  O   UNK     0       4.702   2.789   0.000  0.00  0.00    -0.352 OA
HETATM   29  C   UNK     0       5.882  -0.815   0.000  0.00  0.00    -0.029 A 
HETATM   30  O   UNK     0       7.216  -1.585   0.000  0.00  0.00     0.000 OA
HETATM   31  C   UNK     0       0.000   0.000   0.000  0.00  0.00     0.055 A 
ENDROOT
BRANCH   8  32
HETATM   32  O   UNK     0      -3.950  -0.695   0.000  0.00  0.00    -0.282 OA
BRANCH  32  33
HETATM   33  C   UNK     0      -5.284   0.075   0.000  0.00  0.00     0.260 C 
HETATM   34  O   UNK     0      -5.284   1.615   0.000  0.00  0.00    -0.161 OA
BRANCH  33  35
HETATM   35  C   UNK     0      -6.617  -0.695   0.000  0.00  0.00     0.197 C 
HETATM   36  O   UNK     0      -6.617  -2.235   0.000  0.00  0.00    -0.184 OA
BRANCH  35  37
HETATM   37  C   UNK     0      -7.951   0.044   0.000  0.00  0.00     0.111 A 
HETATM   38  C   UNK     0      -9.285  -0.726   0.000  0.00  0.00     0.016 A 
HETATM   39  C   UNK     0     -10.649   0.044   0.000  0.00  0.00     0.077 A 
HETATM   40  C   UNK     0      -9.285  -2.266   0.000  0.00  0.00     0.030 A 
HETATM   41  C   UNK     0     -11.983  -0.726   0.000  0.00  0.00     0.051 A 
HETATM   42  O   UNK     0     -10.618   1.584   0.000  0.00  0.00    -0.294 OA
HETATM   43  C   UNK     0     -11.983  -2.266   0.000  0.00  0.00     0.007 A 
HETATM   44  C   UNK     0     -10.649  -3.036   0.000  0.00  0.00     0.005 A 
HETATM   45  C   UNK     0      -9.285   2.354   0.000  0.00  0.00     0.174 A 
HETATM   46  N   UNK     0      -7.951   1.584   0.000  0.00  0.00    -0.221 NA
BRANCH  45  47
HETATM   47  C   UNK     0      -9.285   3.894   0.000  0.00  0.00    -0.003 A 
HETATM   48  C   UNK     0     -10.618   4.664   0.000  0.00  0.00     0.026 A 
HETATM   49  C   UNK     0     -10.618   6.204   0.000  0.00  0.00     0.004 A 
HETATM   50  C   UNK     0      -9.285   6.974   0.000  0.00  0.00     0.001 A 
HETATM   51  C   UNK     0      -7.951   6.204   0.000  0.00  0.00     0.004 A 
HETATM   52  C   UNK     0      -7.951   4.664   0.000  0.00  0.00     0.026 A 
ENDBRANCH  45  47
ENDBRANCH  35  37
ENDBRANCH  33  35
ENDBRANCH  32  33
ENDBRANCH   8  32
BRANCH   5  53
HETATM   53  O   UNK     0      -0.345   3.920   0.000  0.00  0.00    -0.306 OA
BRANCH  53  54
HETATM   54  C   UNK     0      -0.345   5.460   0.000  0.00  0.00     0.273 C 
HETATM   55  O   UNK     0      -1.679   6.230   0.000  0.00  0.00    -0.190 OA
HETATM   56  C   UNK     0       0.988   6.230   0.000  0.00  0.00     0.070 C 
ENDBRANCH  53  54
ENDBRANCH   5  53
BRANCH  18  57
HETATM   57  C   UNK     0       0.161  -6.173   0.000  0.00  0.00     0.005 A 
HETATM   58  C   UNK     0      -1.172  -6.943   0.000  0.00  0.00     0.026 A 
HETATM   59  C   UNK     0      -1.172  -8.483   0.000  0.00  0.00     0.004 A 
HETATM   60  C   UNK     0       0.161  -9.253   0.000  0.00  0.00     0.001 A 
HETATM   61  C   UNK     0       1.495  -8.483   0.000  0.00  0.00     0.004 A 
HETATM   62  C   UNK     0       1.495  -6.943   0.000  0.00  0.00     0.026 A 
ENDBRANCH  18  57
TORSDOF 8
