REMARK  2 active torsions:
REMARK  status: ('A' for Active; 'I' for Inactive)
REMARK    1  A    between atoms: P_2  and  C_11 
REMARK    2  A    between atoms: C_12  and  C_13 
ROOT
HETATM    1  P   UNK     0       5.241  -2.005   0.000  0.00  0.00     0.307 P 
HETATM    2  O   UNK     0       7.344  -2.569   0.000  0.00  0.00    -0.195 OA
HETATM    3  O   UNK     0       4.471  -0.672   0.000  0.00  0.00    -0.287 OA
HETATM    4  O   UNK     0       3.907  -2.775   0.000  0.00  0.00    -0.644 OA
HETATM    5  O   UNK     0       5.241  -3.545   0.000  0.00  0.00    -0.644 OA
HETATM    6  C   UNK     0       6.574  -1.235   0.000  0.00  0.00     0.347 A 
HETATM    7  C   UNK     0       5.804   0.098   0.000  0.00  0.00     0.217 A 
ENDROOT
BRANCH   6   8
HETATM    8  P   UNK     0       7.908  -0.465   0.000  0.00  0.00     0.316 P 
HETATM    9  O   UNK     0       9.242   0.305   0.000  0.00  0.00    -0.637 OA
HETATM   10  O   UNK     0       8.678  -1.799   0.000  0.00  0.00    -0.637 OA
HETATM   11  O   UNK     0       7.641   1.051   0.000  0.00  0.00    -0.637 OA
ENDBRANCH   6   8
BRANCH   7  12
HETATM   12  C   UNK     0       6.072   1.615   0.000  0.00  0.00     0.372 C 
HETATM   13  N   UNK     0       4.892   2.605   0.000  0.00  0.00     0.621 N 
ENDBRANCH   7  12
TORSDOF 2
