REMARK  6 active torsions:
REMARK  status: ('A' for Active; 'I' for Inactive)
REMARK    1  A    between atoms: C_2  and  N_3 
REMARK    2  A    between atoms: N_6  and  C_24 
REMARK    3  A    between atoms: C_13  and  C_14 
REMARK    4  A    between atoms: C_14  and  N_15 
REMARK    5  A    between atoms: C_27  and  O_28 
REMARK    6  A    between atoms: C_31  and  O_32 
ROOT
HETATM    1  N   UNK     0       3.395  -2.897   0.000  0.00  0.00    -0.294 N 
HETATM    2  C   UNK     0       1.856  -2.849   0.000  0.00  0.00     0.263 A 
HETATM    3  O   UNK     0       1.045  -4.158   0.000  0.00  0.00    -0.151 OA
HETATM    4  N   UNK     0       1.128  -1.492   0.000  0.00  0.00    -0.285 N 
HETATM    5  C   UNK     0       1.939  -0.183   0.000  0.00  0.00     0.136 A 
HETATM    6  C   UNK     0       3.479  -0.231   0.000  0.00  0.00     0.018 A 
HETATM    7  C   UNK     0       4.290   1.078   0.000  0.00  0.00     0.153 A 
HETATM    8  N   UNK     0       5.829   1.030   0.000  0.00  0.00    -0.249 NA
HETATM    9  C   UNK     0       6.557  -0.327   0.000  0.00  0.00     0.151 A 
HETATM   10  N   UNK     0       8.053  -0.694   0.000  0.00  0.00    -0.253 NA
HETATM   11  C   UNK     0       8.166  -2.230   0.000  0.00  0.00     0.131 A 
HETATM   12  C   UNK     0       6.740  -2.812   0.000  0.00  0.00     0.057 A 
HETATM   13  C   UNK     0       5.746  -1.636   0.000  0.00  0.00     0.030 A 
HETATM   14  C   UNK     0       4.207  -1.588   0.000  0.00  0.00     0.058 A 
ENDROOT
BRANCH   4  15
HETATM   15  C   UNK     0      -0.411  -1.444   0.000  0.00  0.00     0.122 A 
HETATM   16  C   UNK     0      -1.222  -2.753   0.000  0.00  0.00     0.176 A 
HETATM   17  F   UNK     0      -0.494  -4.110   0.000  0.00  0.00    -0.201 F 
HETATM   18  C   UNK     0      -2.762  -2.705   0.000  0.00  0.00     0.107 A 
HETATM   19  C   UNK     0      -3.490  -1.348   0.000  0.00  0.00     0.107 A 
HETATM   20  C   UNK     0      -2.678  -0.039   0.000  0.00  0.00     0.107 A 
HETATM   21  C   UNK     0      -1.139  -0.087   0.000  0.00  0.00     0.176 A 
HETATM   22  F   UNK     0      -0.328   1.222   0.000  0.00  0.00    -0.201 F 
BRANCH  18  23
HETATM   23  O   UNK     0      -3.573  -4.014   0.000  0.00  0.00    -0.330 OA
HETATM   24  C   UNK     0      -2.845  -5.371   0.000  0.00  0.00     0.181 C 
ENDBRANCH  18  23
BRANCH  20  25
HETATM   25  O   UNK     0      -3.406   1.318   0.000  0.00  0.00    -0.330 OA
HETATM   26  C   UNK     0      -2.595   2.627   0.000  0.00  0.00     0.181 C 
ENDBRANCH  20  25
ENDBRANCH   4  15
BRANCH   1  27
HETATM   27  C   UNK     0       4.123  -4.254   0.000  0.00  0.00     0.110 C 
HETATM   28  C   UNK     0       5.663  -4.302   0.000  0.00  0.00     0.027 C 
ENDBRANCH   1  27
BRANCH  11  29
HETATM   29  C   UNK     0       9.475  -3.041   0.000  0.00  0.00     0.122 C 
BRANCH  29  30
HETATM   30  N   UNK     0      10.832  -2.313   0.000  0.00  0.00    -0.363 N 
HETATM   31  C   UNK     0      10.880  -0.774   0.000  0.00  0.00     0.130 A 
HETATM   32  C   UNK     0      12.237  -0.046   0.000  0.00  0.00     0.166 A 
HETATM   33  O   UNK     0      13.546  -0.857   0.000  0.00  0.00    -0.350 OA
HETATM   34  C   UNK     0      13.498  -2.397   0.000  0.00  0.00     0.166 A 
HETATM   35  C   UNK     0      12.141  -3.125   0.000  0.00  0.00     0.130 A 
ENDBRANCH  29  30
ENDBRANCH  11  29
TORSDOF 6
