REMARK  6 active torsions:
REMARK  status: ('A' for Active; 'I' for Inactive)
REMARK    1  A    between atoms: C_3  and  N_18 
REMARK    2  A    between atoms: C_6  and  C_7 
REMARK    3  A    between atoms: C_7  and  C_8 
REMARK    4  A    between atoms: N_18  and  C_19 
REMARK    5  A    between atoms: C_19  and  C_20 
REMARK    6  A    between atoms: C_23  and  C_26 
ROOT
HETATM    1  C   UNK     0      -0.189   4.017   0.000  0.00  0.00     0.010 A 
HETATM    2  C   UNK     0       0.841   5.161   0.000  0.00  0.00     0.065 A 
HETATM    3  C   UNK     0       2.348   4.841   0.000  0.00  0.00     0.130 A 
HETATM    4  N   UNK     0       2.824   3.376   0.000  0.00  0.00    -0.257 NA
HETATM    5  C   UNK     0       1.793   2.232   0.000  0.00  0.00     0.127 A 
HETATM    6  C   UNK     0       0.287   2.552   0.000  0.00  0.00     0.029 A 
ENDROOT
BRANCH   3   7
HETATM    7  N   UNK     0       3.378   5.985   0.000  0.00  0.00    -0.257 NA
BRANCH   7   8
HETATM    8  C   UNK     0       2.902   7.450   0.000  0.00  0.00     0.129 C 
BRANCH   8   9
HETATM    9  C   UNK     0       3.933   8.595   0.000  0.00  0.00     0.049 A 
HETATM   10  C   UNK     0       3.457  10.059   0.000  0.00  0.00     0.010 A 
HETATM   11  C   UNK     0       4.487  11.204   0.000  0.00  0.00     0.050 A 
HETATM   12  C   UNK     0       5.994  10.883   0.000  0.00  0.00     0.125 A 
HETATM   13  N   UNK     0       6.469   9.419   0.000  0.00  0.00    -0.271 NA
HETATM   14  C   UNK     0       5.439   8.274   0.000  0.00  0.00     0.127 A 
BRANCH  12  15
HETATM   15  C   UNK     0       7.024  12.028   0.000  0.00  0.00     0.431 C 
HETATM   16  F   UNK     0       8.054  13.172   0.000  0.00  0.00    -0.165 F 
HETATM   17  F   UNK     0       8.168  10.997   0.000  0.00  0.00    -0.165 F 
HETATM   18  F   UNK     0       5.880  13.058   0.000  0.00  0.00    -0.165 F 
ENDBRANCH  12  15
ENDBRANCH   8   9
ENDBRANCH   7   8
ENDBRANCH   3   7
BRANCH   6  19
HETATM   19  C   UNK     0      -0.744   1.408   0.000  0.00  0.00     0.026 C 
BRANCH  19  20
HETATM   20  C   UNK     0      -0.268  -0.057   0.000  0.00  0.00    -0.021 A 
HETATM   21  C   UNK     0      -1.173  -1.303   0.000  0.00  0.00     0.149 A 
HETATM   22  N   UNK     0      -0.268  -2.549   0.000  0.00  0.00    -0.249 NA
HETATM   23  C   UNK     0       1.197  -2.073   0.000  0.00  0.00     0.150 A 
HETATM   24  C   UNK     0       1.197  -0.533   0.000  0.00  0.00     0.012 A 
HETATM   25  N   UNK     0       2.530  -2.843   0.000  0.00  0.00    -0.248 NA
HETATM   26  C   UNK     0       2.530   0.237   0.000  0.00  0.00     0.064 A 
HETATM   27  C   UNK     0       3.864  -0.533   0.000  0.00  0.00     0.042 A 
HETATM   28  C   UNK     0       3.864  -2.073   0.000  0.00  0.00     0.161 A 
HETATM   29 Cl   UNK     0       5.198   0.237   0.000  0.00  0.00    -0.089 Cl
ENDBRANCH  19  20
ENDBRANCH   6  19
TORSDOF 6
