REMARK  13 active torsions:
REMARK  status: ('A' for Active; 'I' for Inactive)
REMARK    1  A    between atoms: C_1  and  O_13 
REMARK    2  A    between atoms: C_7  and  O_65 
REMARK    3  A    between atoms: C_11  and  O_13 
REMARK    4  A    between atoms: C_14  and  O_56 
REMARK    5  A    between atoms: C_18  and  O_65 
REMARK    6  A    between atoms: C_20  and  O_48 
REMARK    7  A    between atoms: C_28  and  O_48 
REMARK    8  A    between atoms: C_44  and  O_56 
REMARK    9  A    between atoms: C_45  and  C_52 
REMARK   10  A    between atoms: C_51  and  C_52 
REMARK   11  A    between atoms: C_51  and  C_55 
REMARK   12  A    between atoms: C_52  and  O_57 
REMARK   13  A    between atoms: C_54  and  C_55 
ROOT
HETATM    1  C   UNK     0      33.919 -17.509   0.000  0.00  0.00     0.107 A 
HETATM    2  C   UNK     0      33.919 -19.049   0.000  0.00  0.00     0.172 A 
HETATM    3  C   UNK     0      35.253 -19.819   0.000  0.00  0.00     0.124 A 
HETATM    4  C   UNK     0      36.587 -19.049   0.000  0.00  0.00     0.053 A 
HETATM    5  C   UNK     0      36.587 -17.509   0.000  0.00  0.00     0.201 A 
HETATM    6  O   UNK     0      35.253 -16.739   0.000  0.00  0.00    -0.288 OA
HETATM    7  C   UNK     0      39.254 -19.049   0.000  0.00  0.00     0.027 A 
HETATM    8  C   UNK     0      39.254 -17.509   0.000  0.00  0.00     0.082 A 
HETATM    9  O   UNK     0      37.920 -16.739   0.000  0.00  0.00    -0.290 OA
HETATM   10  C   UNK     0      40.588 -19.819   0.000  0.00  0.00     0.130 A 
HETATM   11  C   UNK     0      41.921 -19.049   0.000  0.00  0.00     0.043 A 
HETATM   12  C   UNK     0      41.921 -17.509   0.000  0.00  0.00    -0.030 A 
HETATM   13  C   UNK     0      40.588 -16.739   0.000  0.00  0.00     0.074 A 
HETATM   14  C   UNK     0      43.255 -19.819   0.000  0.00  0.00     0.134 A 
HETATM   15  C   UNK     0      44.589 -19.049   0.000  0.00  0.00     0.045 A 
HETATM   16  C   UNK     0      44.589 -17.509   0.000  0.00  0.00    -0.032 A 
HETATM   17  C   UNK     0      43.255 -16.739   0.000  0.00  0.00     0.045 A 
HETATM   18  C   UNK     0      45.922 -19.819   0.000  0.00  0.00     0.154 A 
HETATM   19  C   UNK     0      47.256 -19.049   0.000  0.00  0.00     0.120 A 
HETATM   20  C   UNK     0      47.256 -17.509   0.000  0.00  0.00     0.031 A 
HETATM   21  C   UNK     0      45.922 -16.739   0.000  0.00  0.00     0.053 A 
HETATM   22  C   UNK     0      32.586 -16.739   0.000  0.00  0.00     0.061 C 
HETATM   23  O   UNK     0      32.586 -19.819   0.000  0.00  0.00    -0.186 OA
HETATM   24  O   UNK     0      45.922 -21.359   0.000  0.00  0.00    -0.188 OA
HETATM   25  O   UNK     0      43.255 -21.359   0.000  0.00  0.00    -0.190 OA
HETATM   26  O   UNK     0      40.588 -21.359   0.000  0.00  0.00    -0.190 OA
HETATM   27  C   UNK     0      37.904 -19.828   0.000  0.00  0.00     0.063 A 
ENDROOT
BRANCH  19  28
HETATM   28  O   UNK     0      47.333 -22.745   0.000  0.00  0.00    -0.303 OA
BRANCH  28  29
HETATM   29  C   UNK     0      46.004 -23.550   0.000  0.00  0.00     0.251 A 
HETATM   30  O   UNK     0      44.644 -22.802   0.000  0.00  0.00    -0.307 OA
HETATM   31  C   UNK     0      43.326 -23.600   0.000  0.00  0.00     0.102 A 
HETATM   32  C   UNK     0      43.282 -25.139   0.000  0.00  0.00     0.168 A 
HETATM   33  C   UNK     0      41.983 -22.817   0.000  0.00  0.00     0.060 C 
HETATM   34  C   UNK     0      44.720 -25.887   0.000  0.00  0.00     0.112 A 
HETATM   35  O   UNK     0      41.981 -25.904   0.000  0.00  0.00    -0.187 OA
HETATM   36  C   UNK     0      46.037 -25.089   0.000  0.00  0.00     0.116 A 
BRANCH  34  37
HETATM   37  O   UNK     0      44.770 -27.440   0.000  0.00  0.00    -0.287 OA
BRANCH  37  38
HETATM   38  C   UNK     0      43.466 -28.251   0.000  0.00  0.00     0.205 A 
HETATM   39  O   UNK     0      42.125 -27.534   0.000  0.00  0.00    -0.287 OA
HETATM   40  C   UNK     0      40.817 -28.348   0.000  0.00  0.00     0.107 A 
HETATM   41  C   UNK     0      40.789 -29.887   0.000  0.00  0.00     0.172 A 
HETATM   42  C   UNK     0      39.492 -27.640   0.000  0.00  0.00     0.061 C 
HETATM   43  C   UNK     0      42.209 -30.604   0.000  0.00  0.00     0.133 A 
HETATM   44  O   UNK     0      39.538 -30.714   0.000  0.00  0.00    -0.186 OA
HETATM   45  C   UNK     0      43.440 -29.790   0.000  0.00  0.00     0.078 A 
BRANCH  43  46
HETATM   46  O   UNK     0      42.260 -32.139   0.000  0.00  0.00    -0.283 OA
BRANCH  46  47
HETATM   47  C   UNK     0      40.935 -32.963   0.000  0.00  0.00     0.202 A 
HETATM   48  O   UNK     0      39.579 -32.239   0.000  0.00  0.00    -0.288 OA
HETATM   49  C   UNK     0      38.272 -33.053   0.000  0.00  0.00     0.104 A 
HETATM   50  C   UNK     0      38.244 -34.592   0.000  0.00  0.00     0.159 A 
HETATM   51  C   UNK     0      36.946 -32.345   0.000  0.00  0.00     0.060 C 
HETATM   52  C   UNK     0      39.678 -35.316   0.000  0.00  0.00     0.193 A 
HETATM   53  O   UNK     0      37.000 -35.415   0.000  0.00  0.00    -0.190 OA
HETATM   54  C   UNK     0      40.908 -34.502   0.000  0.00  0.00     0.060 A 
HETATM   55  C   UNK     0      38.589 -36.636   0.000  0.00  0.00     0.045 C 
HETATM   56  O   UNK     0      40.767 -36.636   0.000  0.00  0.00    -0.215 OA
ENDBRANCH  46  47
ENDBRANCH  43  46
ENDBRANCH  37  38
ENDBRANCH  34  37
ENDBRANCH  28  29
ENDBRANCH  19  28
BRANCH  20  57
HETATM   57  C   UNK     0      48.590 -16.739   0.000  0.00  0.00     0.120 C 
BRANCH  57  58
HETATM   58  C   UNK     0      49.923 -17.509   0.000  0.00  0.00     0.180 C 
HETATM   59  O   UNK     0      49.923 -19.049   0.000  0.00  0.00    -0.186 OA
BRANCH  58  60
HETATM   60  C   UNK     0      51.257 -16.739   0.000  0.00  0.00     0.179 C 
HETATM   61  O   UNK     0      51.257 -15.199   0.000  0.00  0.00    -0.186 OA
BRANCH  60  62
HETATM   62  C   UNK     0      52.591 -17.509   0.000  0.00  0.00     0.136 C 
HETATM   63  O   UNK     0      52.591 -19.049   0.000  0.00  0.00    -0.193 OA
HETATM   64  C   UNK     0      53.896 -16.755   0.000  0.00  0.00     0.064 C 
ENDBRANCH  60  62
ENDBRANCH  58  60
ENDBRANCH  57  58
BRANCH  57  65
HETATM   65  O   UNK     0      48.590 -15.199   0.000  0.00  0.00    -0.326 OA
HETATM   66  C   UNK     0      47.284 -14.445   0.000  0.00  0.00     0.181 C 
ENDBRANCH  57  65
ENDBRANCH  20  57
BRANCH   3  67
HETATM   67  O   UNK     0      35.253 -21.359   0.000  0.00  0.00    -0.303 OA
BRANCH  67  68
HETATM   68  C   UNK     0      33.901 -22.140   0.000  0.00  0.00     0.251 A 
HETATM   69  O   UNK     0      32.577 -21.375   0.000  0.00  0.00    -0.307 OA
HETATM   70  C   UNK     0      31.243 -22.145   0.000  0.00  0.00     0.102 A 
HETATM   71  C   UNK     0      31.243 -23.685   0.000  0.00  0.00     0.170 A 
HETATM   72  C   UNK     0      29.888 -21.363   0.000  0.00  0.00     0.060 C 
HETATM   73  C   UNK     0      32.567 -24.450   0.000  0.00  0.00     0.140 A 
HETATM   74  O   UNK     0      29.902 -24.459   0.000  0.00  0.00    -0.187 OA
HETATM   75  C   UNK     0      33.901 -23.680   0.000  0.00  0.00     0.119 A 
HETATM   76  O   UNK     0      32.567 -25.979   0.000  0.00  0.00    -0.192 OA
ENDBRANCH  67  68
ENDBRANCH   3  67
TORSDOF 13
