REMARK  8 active torsions:
REMARK  status: ('A' for Active; 'I' for Inactive)
REMARK    1  A    between atoms: N_1  and  C_8 
REMARK    2  A    between atoms: C_8  and  C_9 
REMARK    3  A    between atoms: C_10  and  C_15 
REMARK    4  A    between atoms: C_12  and  N_19 
REMARK       I    between atoms: N_19  and  C_20 
REMARK    5  A    between atoms: C_20  and  C_21 
REMARK    6  A    between atoms: C_24  and  C_29 
REMARK    7  A    between atoms: C_29  and  C_30 
REMARK    8  A    between atoms: C_30  and  C_31 
ROOT
HETATM    1  N   UNK     0      28.100 -33.451   0.000  0.00  0.00    -0.229 NA
HETATM    2  C   UNK     0      26.753 -32.681   0.000  0.00  0.00     0.205 C 
HETATM    3  O   UNK     0      26.746 -31.108   0.000  0.00  0.00    -0.170 OA
ENDROOT
BRANCH   2   4
HETATM    4  C   UNK     0      25.412 -33.463   0.000  0.00  0.00     0.005 A 
HETATM    5  C   UNK     0      24.087 -32.706   0.000  0.00  0.00     0.060 A 
HETATM    6  C   UNK     0      22.757 -33.483   0.000  0.00  0.00     0.016 A 
HETATM    7  C   UNK     0      22.765 -35.023   0.000  0.00  0.00    -0.040 A 
HETATM    8  C   UNK     0      24.090 -35.780   0.000  0.00  0.00     0.027 A 
HETATM    9  C   UNK     0      21.450 -35.791   0.000  0.00  0.00     0.027 C 
HETATM   10  C   UNK     0      25.420 -35.003   0.000  0.00  0.00     0.030 A 
BRANCH   6  11
HETATM   11  C   UNK     0      21.451 -32.737   0.000  0.00  0.00    -0.063 C 
BRANCH  11  12
HETATM   12  C   UNK     0      20.118 -31.967   0.000  0.00  0.00    -0.043 C 
BRANCH  12  13
HETATM   13  C   UNK     0      18.784 -31.197   0.000  0.00  0.00     0.127 A 
HETATM   14  C   UNK     0      18.760 -29.645   0.000  0.00  0.00     0.181 A 
HETATM   15  N   UNK     0      17.278 -29.187   0.000  0.00  0.00    -0.249 NA
HETATM   16  C   UNK     0      16.384 -30.456   0.000  0.00  0.00     0.136 A 
HETATM   17  N   UNK     0      17.314 -31.698   0.000  0.00  0.00    -0.215 N 
HETATM   18  C   UNK     0      14.855 -30.639   0.000  0.00  0.00     0.068 A 
HETATM   19  N   UNK     0      16.709 -33.114   0.000  0.00  0.00    -0.190 NA
HETATM   20  C   UNK     0      15.180 -33.297   0.000  0.00  0.00     0.148 A 
HETATM   21  C   UNK     0      14.249 -32.055   0.000  0.00  0.00     0.036 A 
ENDBRANCH  12  13
ENDBRANCH  11  12
ENDBRANCH   6  11
ENDBRANCH   2   4
BRANCH   1  22
HETATM   22  C   UNK     0      29.443 -32.668   0.000  0.00  0.00     0.044 A 
HETATM   23  C   UNK     0      29.436 -31.128   0.000  0.00  0.00     0.071 A 
HETATM   24  C   UNK     0      30.767 -30.353   0.000  0.00  0.00     0.049 A 
HETATM   25  C   UNK     0      32.083 -31.105   0.000  0.00  0.00    -0.022 A 
HETATM   26  C   UNK     0      32.089 -32.645   0.000  0.00  0.00     0.029 A 
HETATM   27  C   UNK     0      30.758 -33.421   0.000  0.00  0.00     0.046 A 
BRANCH  24  28
HETATM   28  C   UNK     0      30.837 -28.798   0.000  0.00  0.00     0.415 C 
HETATM   29  F   UNK     0      30.837 -27.258   0.000  0.00  0.00    -0.166 F 
HETATM   30  F   UNK     0      29.297 -28.798   0.000  0.00  0.00    -0.166 F 
HETATM   31  F   UNK     0      32.377 -28.798   0.000  0.00  0.00    -0.166 F 
ENDBRANCH  24  28
BRANCH  25  32
HETATM   32  C   UNK     0      33.390 -30.343   0.000  0.00  0.00     0.120 C 
BRANCH  32  33
HETATM   33  N   UNK     0      34.727 -31.108   0.000  0.00  0.00    -0.362 N 
HETATM   34  C   UNK     0      34.727 -32.648   0.000  0.00  0.00     0.121 A 
HETATM   35  C   UNK     0      36.036 -33.418   0.000  0.00  0.00     0.121 A 
HETATM   36  N   UNK     0      37.422 -32.648   0.000  0.00  0.00    -0.364 N 
HETATM   37  C   UNK     0      37.422 -31.108   0.000  0.00  0.00     0.121 A 
HETATM   38  C   UNK     0      38.731 -33.418   0.000  0.00  0.00     0.121 C 
HETATM   39  C   UNK     0      36.036 -30.338   0.000  0.00  0.00     0.121 A 
ENDBRANCH  32  33
ENDBRANCH  25  32
ENDBRANCH   1  22
TORSDOF 8
