REMARK  2 active torsions:
REMARK  status: ('A' for Active; 'I' for Inactive)
REMARK    1  A    between atoms: C_4  and  C_7 
REMARK    2  A    between atoms: C_13  and  C_17 
ROOT
HETATM    1  C   UNK     0       1.268  -3.703   0.000  0.00  0.00    -0.006 A 
HETATM    2  C   UNK     0      -1.399  -2.163   0.000  0.00  0.00     0.038 A 
HETATM    3  C   UNK     0      -0.065   0.147   0.000  0.00  0.00     0.116 A 
HETATM    4  C   UNK     0      -0.065  -4.473   0.000  0.00  0.00    -0.000 A 
HETATM    5  C   UNK     0      -1.399  -3.703   0.000  0.00  0.00     0.008 A 
HETATM    6  C   UNK     0      -2.733  -1.393   0.000  0.00  0.00    -0.038 A 
HETATM    7  C   UNK     0      -2.733  -4.473   0.000  0.00  0.00     0.034 A 
HETATM    8  C   UNK     0      -4.066  -2.163   0.000  0.00  0.00     0.053 A 
HETATM    9  C   UNK     0       1.268  -2.163   0.000  0.00  0.00     0.013 A 
HETATM   10  C   UNK     0      -0.065  -1.393   0.000  0.00  0.00     0.076 A 
HETATM   11  O   UNK     0      -5.400  -4.473   0.000  0.00  0.00    -0.223 OA
HETATM   12  C   UNK     0      -4.066  -3.703   0.000  0.00  0.00     0.156 A 
HETATM   13  C   UNK     0      -1.399  -0.623   0.000  0.00  0.00     0.103 A 
HETATM   14  O   UNK     0      -1.399   0.917   0.000  0.00  0.00    -0.358 OA
ENDROOT
BRANCH   3  15
HETATM   15  C   UNK     0       1.268   0.917   0.000  0.00  0.00     0.057 A 
HETATM   16  C   UNK     0       2.602   0.147   0.000  0.00  0.00     0.028 A 
HETATM   17  C   UNK     0       4.067   0.623   0.000  0.00  0.00     0.035 A 
HETATM   18  C   UNK     0       2.602  -1.393   0.000  0.00  0.00     0.016 A 
HETATM   19  C   UNK     0       2.602   1.687   0.000  0.00  0.00     0.123 A 
HETATM   20  C   UNK     0       4.972  -0.623   0.000  0.00  0.00     0.002 A 
HETATM   21  O   UNK     0       5.400   1.393   0.000  0.00  0.00     0.000 OA
HETATM   22  C   UNK     0       4.067   2.163   0.000  0.00  0.00     0.159 A 
HETATM   23  C   UNK     0       4.067  -1.869   0.000  0.00  0.00    -0.006 A 
HETATM   24  C   UNK     0       5.400   2.933   0.000  0.00  0.00     0.159 A 
HETATM   25  O   UNK     0       5.400   4.473   0.000  0.00  0.00    -0.190 OA
HETATM   26  O   UNK     0       2.733   2.933   0.000  0.00  0.00    -0.352 OA
ENDBRANCH   3  15
TORSDOF 2
