REMARK  9 active torsions:
REMARK  status: ('A' for Active; 'I' for Inactive)
REMARK    1  A    between atoms: N_8  and  C_12 
REMARK    2  A    between atoms: N_8  and  C_16 
REMARK    3  A    between atoms: N_9  and  C_13 
REMARK       I    between atoms: N_9  and  C_24 
REMARK    4  A    between atoms: C_12  and  C_14 
REMARK    5  A    between atoms: C_13  and  C_15 
REMARK    6  A    between atoms: C_13  and  C_28 
REMARK    7  A    between atoms: C_15  and  C_20 
REMARK    8  A    between atoms: C_20  and  C_31 
REMARK    9  A    between atoms: C_22  and  C_24 
ROOT
HETATM    1  S   UNK     0      15.261   0.640   0.000  0.00  0.00    -0.075 SA
HETATM    2  C   UNK     0      13.851   0.019   0.000  0.00  0.00     0.064 A 
HETATM    3  C   UNK     0      16.287  -0.508   0.000  0.00  0.00     0.052 A 
HETATM    4  C   UNK     0      14.006  -1.513   0.000  0.00  0.00     0.056 A 
HETATM    5  C   UNK     0      15.511  -1.839   0.000  0.00  0.00     0.043 A 
ENDROOT
BRANCH   2   6
HETATM    6  N   UNK     0      12.520   0.794   0.000  0.00  0.00    -0.345 N 
HETATM    7  C   UNK     0      12.527   2.334   0.000  0.00  0.00     0.126 C 
BRANCH   6   8
HETATM    8  C   UNK     0      11.184   0.029   0.000  0.00  0.00     0.102 C 
BRANCH   8   9
HETATM    9  C   UNK     0       9.853   0.805   0.000  0.00  0.00     0.027 A 
HETATM   10  C   UNK     0       8.458   0.013   0.000  0.00  0.00     0.033 A 
HETATM   11  C   UNK     0       7.081   0.836   0.000  0.00  0.00     0.035 A 
HETATM   12  C   UNK     0       7.081   2.377   0.000  0.00  0.00     0.060 A 
HETATM   13  C   UNK     0       5.747   0.066   0.000  0.00  0.00     0.211 A 
HETATM   14  N   UNK     0       5.747   3.147   0.000  0.00  0.00    -0.235 NA
HETATM   15  C   UNK     0       8.458   3.200   0.000  0.00  0.00     0.046 A 
HETATM   16  C   UNK     0       4.414   2.377   0.000  0.00  0.00     0.141 A 
HETATM   17  N   UNK     0       4.414   0.836   0.000  0.00  0.00    -0.205 NA
HETATM   18  C   UNK     0       3.080   3.147   0.000  0.00  0.00     0.074 C 
HETATM   19  C   UNK     0       9.853   2.409   0.000  0.00  0.00     0.009 A 
HETATM   20  O   UNK     0       5.747  -1.474   0.000  0.00  0.00    -0.169 OA
ENDBRANCH   8   9
ENDBRANCH   6   8
ENDBRANCH   2   6
BRANCH   3  21
HETATM   21  C   UNK     0      17.819  -0.353   0.000  0.00  0.00     0.215 C 
HETATM   22  O   UNK     0      18.451   1.051   0.000  0.00  0.00    -0.169 OA
HETATM   23  N   UNK     0      18.719  -1.603   0.000  0.00  0.00    -0.218 NA
BRANCH  23  24
HETATM   24  C   UNK     0      20.251  -1.448   0.000  0.00  0.00     0.126 C 
BRANCH  24  25
HETATM   25  C   UNK     0      20.883  -0.043   0.000  0.00  0.00     0.064 C 
BRANCH  25  26
HETATM   26  C   UNK     0      22.415   0.112   0.000  0.00  0.00     0.104 C 
BRANCH  26  27
HETATM   27  C   UNK     0      23.047   1.516   0.000  0.00  0.00     0.186 C 
HETATM   28  O   UNK     0      24.580   1.671   0.000  0.00  0.00    -0.647 OA
HETATM   29  O   UNK     0      22.147   2.766   0.000  0.00  0.00    -0.647 OA
ENDBRANCH  26  27
ENDBRANCH  25  26
ENDBRANCH  24  25
BRANCH  24  30
HETATM   30  C   UNK     0      21.152  -2.697   0.000  0.00  0.00     0.225 C 
HETATM   31  O   UNK     0      22.684  -2.542   0.000  0.00  0.00    -0.643 OA
HETATM   32  O   UNK     0      20.520  -4.101   0.000  0.00  0.00    -0.643 OA
ENDBRANCH  24  30
ENDBRANCH  23  24
ENDBRANCH   3  21
TORSDOF 9
