REMARK  3 active torsions:
REMARK  status: ('A' for Active; 'I' for Inactive)
REMARK    1  A    between atoms: C_16  and  C_21 
REMARK    2  A    between atoms: C_24  and  O_62 
REMARK    3  A    between atoms: C_34  and  O_35 
ROOT
HETATM    1  C   UNK     0      -4.002   8.017   0.000  0.00  0.00     0.019 A 
HETATM    2  C   UNK     0      -4.002   6.477   0.000  0.00  0.00     0.170 A 
HETATM    3  C   UNK     0      -5.336   8.787   0.000  0.00  0.00     0.004 A 
HETATM    4  N   UNK     0      -5.336   5.707   0.000  0.00  0.00    -0.331 N 
HETATM    5  C   UNK     0      -6.669   8.017   0.000  0.00  0.00     0.024 A 
HETATM    6  C   UNK     0      -6.669   6.477   0.000  0.00  0.00     0.103 A 
HETATM    7  C   UNK     0      -2.668   5.707   0.000  0.00  0.00     0.281 C 
HETATM    8  O   UNK     0      -2.668   4.167   0.000  0.00  0.00    -0.189 OA
HETATM    9  O   UNK     0      -4.002   3.396   0.000  0.00  0.00    -0.171 OA
HETATM   10  C   UNK     0      -5.335   4.167   0.000  0.00  0.00     0.227 C 
HETATM   11  C   UNK     0      -6.669   3.396   0.000  0.00  0.00     0.326 A 
HETATM   12  O   UNK     0      -8.003   4.166   0.000  0.00  0.00    -0.181 OA
HETATM   13  C   UNK     0       0.000   5.707   0.000  0.00  0.00     0.175 A 
HETATM   14  C   UNK     0       0.000   4.167   0.000  0.00  0.00     0.075 A 
HETATM   15  O   UNK     0      -1.334   6.477   0.000  0.00  0.00    -0.336 OA
HETATM   16  C   UNK     0       2.667   5.707   0.000  0.00  0.00     0.065 A 
HETATM   17  O   UNK     0       2.667   4.167   0.000  0.00  0.00    -0.317 OA
HETATM   18  C   UNK     0       1.333   6.477   0.000  0.00  0.00    -0.008 A 
HETATM   19  C   UNK     0       1.333   3.396   0.000  0.00  0.00     0.072 A 
HETATM   20  C   UNK     0       1.334   8.017   0.000  0.00  0.00     0.030 C 
HETATM   21  O   UNK     0      -5.336   1.086   0.000  0.00  0.00    -0.342 OA
HETATM   22  C   UNK     0      -6.669   1.857   0.000  0.00  0.00     0.247 A 
HETATM   23  C   UNK     0      -5.336  -0.453   0.000  0.00  0.00     0.154 A 
HETATM   24  C   UNK     0      -6.669  -1.223   0.000  0.00  0.00     0.021 A 
HETATM   25  C   UNK     0      -8.003   1.087   0.000  0.00  0.00     0.057 A 
HETATM   26  C   UNK     0      -8.003  -0.453   0.000  0.00  0.00     0.007 A 
HETATM   27  C   UNK     0      -4.002  -1.223   0.000  0.00  0.00     0.071 C 
HETATM   28  C   UNK     0      -4.002  -2.764   0.000  0.00  0.00     0.066 C 
HETATM   29  C   UNK     0      -1.334  -2.764   0.000  0.00  0.00     0.028 C 
HETATM   30  C   UNK     0      -2.668  -3.534   0.000  0.00  0.00    -0.025 C 
HETATM   31  C   UNK     0      -2.668  -5.074   0.000  0.00  0.00     0.028 C 
HETATM   32  C   UNK     0      -9.336   1.857   0.000  0.00  0.00     0.005 C 
HETATM   33  C   UNK     0       1.333   1.856   0.000  0.00  0.00    -0.021 C 
HETATM   34  C   UNK     0      -0.000   1.086   0.000  0.00  0.00     0.028 C 
HETATM   35  C   UNK     0       2.667   1.086   0.000  0.00  0.00     0.048 C 
HETATM   36  C   UNK     0       2.667  -0.454   0.000  0.00  0.00    -0.012 C 
HETATM   37  C   UNK     0       1.333  -1.224   0.000  0.00  0.00     0.029 C 
HETATM   38  C   UNK     0       4.001  -1.224   0.000  0.00  0.00     0.148 C 
HETATM   39  C   UNK     0       4.001  -2.764   0.000  0.00  0.00     0.144 A 
HETATM   40  O   UNK     0       2.667  -3.534   0.000  0.00  0.00    -0.322 OA
HETATM   41  O   UNK     0       5.335  -0.454   0.000  0.00  0.00    -0.189 OA
HETATM   42  C   UNK     0       5.335  -3.534   0.000  0.00  0.00     0.151 A 
HETATM   43  C   UNK     0      -1.346  -5.881   0.000  0.00  0.00     0.030 C 
HETATM   44  C   UNK     0      -1.346  -7.670   0.000  0.00  0.00    -0.026 C 
HETATM   45  C   UNK     0       5.335  -5.074   0.000  0.00  0.00     0.004 A 
HETATM   46  C   UNK     0       3.957  -5.815   0.000  0.00  0.00     0.002 A 
HETATM   47  C   UNK     0       2.667  -5.074   0.000  0.00  0.00     0.175 A 
HETATM   48  O   UNK     0       6.668  -2.764   0.000  0.00  0.00    -0.188 OA
HETATM   49  C   UNK     0      -0.114  -8.360   0.000  0.00  0.00    -0.005 C 
HETATM   50  C   UNK     0       1.221  -7.435   0.000  0.00  0.00    -0.005 C 
HETATM   51  C   UNK     0       2.918  -7.435   0.000  0.00  0.00    -0.024 C 
HETATM   52  C   UNK     0       6.677  -5.793   0.000  0.00  0.00     0.033 C 
HETATM   53  O   UNK     0      -5.429   2.623   0.000  0.00  0.00    -0.298 OA
HETATM   54  C   UNK     0       3.657  -8.787   0.000  0.00  0.00     0.031 C 
ENDROOT
BRANCH  16  55
HETATM   55  C   UNK     0       4.001   6.477   0.000  0.00  0.00     0.072 A 
HETATM   56  C   UNK     0       4.001   8.017   0.000  0.00  0.00     0.007 A 
HETATM   57  C   UNK     0       5.335   8.787   0.000  0.00  0.00     0.056 A 
HETATM   58  C   UNK     0       6.669   8.017   0.000  0.00  0.00     0.127 A 
HETATM   59  C   UNK     0       6.669   6.477   0.000  0.00  0.00     0.093 A 
HETATM   60  O   UNK     0       8.002   8.787   0.000  0.00  0.00    -0.193 OA
HETATM   61  C   UNK     0       5.335   5.707   0.000  0.00  0.00     0.053 A 
BRANCH  59  62
HETATM   62  O   UNK     0       8.002   5.707   0.000  0.00  0.00    -0.331 OA
HETATM   63  C   UNK     0       9.336   6.477   0.000  0.00  0.00     0.181 C 
ENDBRANCH  59  62
ENDBRANCH  16  55
BRANCH  28  64
HETATM   64  O   UNK     0      -5.336  -3.534   0.000  0.00  0.00    -0.333 OA
HETATM   65  C   UNK     0      -5.336  -5.073   0.000  0.00  0.00     0.181 C 
ENDBRANCH  28  64
TORSDOF 3
