REMARK  4 active torsions:
REMARK  status: ('A' for Active; 'I' for Inactive)
REMARK    1  A    between atoms: C_7  and  C_8 
REMARK    2  A    between atoms: C_11  and  O_14 
REMARK    3  A    between atoms: O_14  and  C_15 
REMARK    4  A    between atoms: C_25  and  N_28 
ROOT
HETATM    1  O   UNK     0       0.766  -5.451   0.000  0.00  0.00    -0.169 OA
HETATM    2  C   UNK     0       1.552  -4.116   0.000  0.00  0.00     0.212 A 
HETATM    3  C   UNK     0       0.766  -2.780   0.000  0.00  0.00     0.037 A 
HETATM    4  C   UNK     0       1.552  -1.444   0.000  0.00  0.00     0.000 A 
HETATM    5  C   UNK     0       0.766  -0.108   0.000  0.00  0.00     0.033 A 
HETATM    6  C   UNK     0      -0.766  -0.108   0.000  0.00  0.00     0.030 A 
HETATM    7  C   UNK     0      -1.552  -1.444   0.000  0.00  0.00    -0.034 A 
HETATM    8  C   UNK     0      -0.766  -2.780   0.000  0.00  0.00    -0.023 A 
HETATM    9  C   UNK     0      -1.552  -4.116   0.000  0.00  0.00     0.031 C 
HETATM   10  N   UNK     0       3.084  -4.116   0.000  0.00  0.00    -0.223 NA
HETATM   11  C   UNK     0       3.850  -2.780   0.000  0.00  0.00     0.079 A 
HETATM   12  C   UNK     0       5.402  -2.780   0.000  0.00  0.00     0.055 A 
HETATM   13  C   UNK     0       6.168  -1.444   0.000  0.00  0.00     0.070 A 
HETATM   14  C   UNK     0       5.402  -0.108   0.000  0.00  0.00     0.117 A 
HETATM   15  N   UNK     0       3.850  -0.108   0.000  0.00  0.00    -0.232 NA
HETATM   16  C   UNK     0       3.084  -1.444   0.000  0.00  0.00     0.092 A 
ENDROOT
BRANCH   7  17
HETATM   17  C   UNK     0      -3.084  -1.444   0.000  0.00  0.00    -0.048 A 
HETATM   18  C   UNK     0      -3.850  -0.108   0.000  0.00  0.00     0.024 A 
HETATM   19  C   UNK     0      -5.402  -0.108   0.000  0.00  0.00     0.034 A 
HETATM   20  C   UNK     0      -6.168  -1.444   0.000  0.00  0.00     0.124 A 
HETATM   21  C   UNK     0      -5.402  -2.780   0.000  0.00  0.00     0.034 A 
HETATM   22  C   UNK     0      -3.850  -2.780   0.000  0.00  0.00     0.024 A 
BRANCH  20  23
HETATM   23  O   UNK     0      -7.720  -1.444   0.000  0.00  0.00    -0.281 OA
BRANCH  23  24
HETATM   24  C   UNK     0      -8.486  -2.780   0.000  0.00  0.00     0.525 C 
HETATM   25  F   UNK     0      -9.822  -2.013   0.000  0.00  0.00    -0.144 F 
HETATM   26  F   UNK     0      -7.150  -3.546   0.000  0.00  0.00    -0.144 F 
HETATM   27  F   UNK     0      -9.252  -4.116   0.000  0.00  0.00    -0.144 F 
ENDBRANCH  23  24
ENDBRANCH  20  23
ENDBRANCH   7  17
BRANCH  14  28
HETATM   28  N   UNK     0       6.168   1.228   0.000  0.00  0.00    -0.333 N 
HETATM   29  C   UNK     0       7.720   1.228   0.000  0.00  0.00     0.123 A 
HETATM   30  C   UNK     0       8.486   2.564   0.000  0.00  0.00     0.167 A 
HETATM   31  O   UNK     0       7.720   3.899   0.000  0.00  0.00    -0.373 OA
HETATM   32  C   UNK     0       9.822   3.330   0.000  0.00  0.00     0.024 C 
HETATM   33  C   UNK     0       6.168   3.899   0.000  0.00  0.00     0.167 A 
HETATM   34  C   UNK     0       5.402   2.564   0.000  0.00  0.00     0.123 A 
HETATM   35  C   UNK     0       4.832   4.665   0.000  0.00  0.00     0.024 C 
ENDBRANCH  14  28
TORSDOF 4
