REMARK  8 active torsions:
REMARK  status: ('A' for Active; 'I' for Inactive)
REMARK    1  A    between atoms: N_4  and  C_8 
REMARK    2  A    between atoms: N_4  and  C_14 
REMARK    3  A    between atoms: N_4  and  C_15 
REMARK    4  A    between atoms: N_6  and  C_12 
REMARK       I    between atoms: N_6  and  C_16 
REMARK    5  A    between atoms: C_8  and  C_12 
REMARK    6  A    between atoms: C_9  and  C_16 
REMARK    7  A    between atoms: C_11  and  C_18 
REMARK    8  A    between atoms: C_17  and  C_18 
ROOT
HETATM    1  N   UNK     0      11.666  -1.765   0.000  0.00  0.00    -0.254 NA
HETATM    2  C   UNK     0      12.684   0.510   0.000  0.00  0.00     0.054 A 
HETATM    3  C   UNK     0      11.153   0.673   0.000  0.00  0.00    -0.003 A 
HETATM    4  C   UNK     0      10.524  -0.733   0.000  0.00  0.00     0.059 A 
HETATM    5  C   UNK     0      13.001  -0.997   0.000  0.00  0.00     0.062 A 
HETATM    6  C   UNK     0      10.385   2.008   0.000  0.00  0.00     0.032 C 
HETATM    7  C   UNK     0      14.407  -1.626   0.000  0.00  0.00     0.052 C 
ENDROOT
BRANCH   4   8
HETATM    8  C   UNK     0       9.017  -1.050   0.000  0.00  0.00     0.075 C 
BRANCH   8   9
HETATM    9  C   UNK     0       8.538  -2.514   0.000  0.00  0.00     0.025 A 
HETATM   10  C   UNK     0       7.081  -2.983   0.000  0.00  0.00    -0.002 A 
HETATM   11  C   UNK     0       7.081  -4.523   0.000  0.00  0.00     0.058 A 
HETATM   12  C   UNK     0       5.747  -2.213   0.000  0.00  0.00     0.079 A 
HETATM   13  N   UNK     0       8.538  -4.993   0.000  0.00  0.00    -0.225 NA
HETATM   14  C   UNK     0       5.747  -5.293   0.000  0.00  0.00     0.052 A 
HETATM   15  C   UNK     0       9.437  -3.753   0.000  0.00  0.00     0.209 A 
HETATM   16  O   UNK     0      10.977  -3.753   0.000  0.00  0.00    -0.170 OA
HETATM   17  C   UNK     0       4.414  -4.523   0.000  0.00  0.00     0.059 A 
HETATM   18  C   UNK     0       4.414  -2.983   0.000  0.00  0.00     0.100 A 
HETATM   19  F   UNK     0       3.080  -2.213   0.000  0.00  0.00    -0.213 F 
ENDBRANCH   8   9
ENDBRANCH   4   8
BRANCH   2  20
HETATM   20  C   UNK     0      13.716   1.652   0.000  0.00  0.00     0.209 C 
HETATM   21  O   UNK     0      13.243   3.118   0.000  0.00  0.00    -0.170 OA
HETATM   22  N   UNK     0      15.222   1.329   0.000  0.00  0.00    -0.244 NA
BRANCH  22  23
HETATM   23  C   UNK     0      16.254   2.472   0.000  0.00  0.00     0.152 C 
BRANCH  23  24
HETATM   24  C   UNK     0      17.760   2.149   0.000  0.00  0.00     0.124 C 
BRANCH  24  25
HETATM   25  N   UNK     0      18.793   3.292   0.000  0.00  0.00    -0.367 N 
BRANCH  25  26
HETATM   26  C   UNK     0      20.299   2.969   0.000  0.00  0.00     0.097 C 
HETATM   27  C   UNK     0      21.331   4.112   0.000  0.00  0.00     0.026 C 
ENDBRANCH  25  26
BRANCH  25  28
HETATM   28  C   UNK     0      18.319   4.757   0.000  0.00  0.00     0.097 C 
HETATM   29  C   UNK     0      19.352   5.900   0.000  0.00  0.00     0.026 C 
ENDBRANCH  25  28
ENDBRANCH  24  25
ENDBRANCH  23  24
ENDBRANCH  22  23
ENDBRANCH   2  20
TORSDOF 8
