REMARK  1 active torsions:
REMARK  status: ('A' for Active; 'I' for Inactive)
REMARK    1  A    between atoms: C_3  and  N_6 
ROOT
HETATM    1  N   UNK     0       1.334  -0.770   0.000  0.00  0.00    -0.269 N 
HETATM    2  C   UNK     0       0.000   0.000   0.000  0.00  0.00     0.172 A 
HETATM    3  C   UNK     0       0.000   1.540   0.000  0.00  0.00     0.184 A 
HETATM    4  C   UNK     0       1.334   2.310   0.000  0.00  0.00     0.241 A 
HETATM    5  O   UNK     0       1.334   3.850   0.000  0.00  0.00    -0.167 OA
HETATM    6  N   UNK     0       2.667   1.540   0.000  0.00  0.00    -0.176 NA
HETATM    7  C   UNK     0       2.667   0.000   0.000  0.00  0.00     0.285 A 
HETATM    8  O   UNK     0       4.001  -0.770   0.000  0.00  0.00    -0.149 OA
HETATM    9  F   UNK     0      -1.334   2.310   0.000  0.00  0.00    -0.203 F 
ENDROOT
BRANCH   1  10
HETATM   10  C   UNK     0       1.334  -2.310   0.000  0.00  0.00     0.138 A 
HETATM   11  C   UNK     0       0.088  -3.215   0.000  0.00  0.00     0.072 A 
HETATM   12  C   UNK     0       0.564  -4.680   0.000  0.00  0.00     0.041 A 
HETATM   13  C   UNK     0       2.104  -4.680   0.000  0.00  0.00     0.151 A 
HETATM   14  O   UNK     0       2.580  -3.215   0.000  0.00  0.00    -0.319 OA
ENDBRANCH   1  10
TORSDOF 1
