REMARK  1 active torsions:
REMARK  status: ('A' for Active; 'I' for Inactive)
REMARK    1  A    between atoms: C_10  and  C_14 
ROOT
HETATM    1  O   UNK     0       5.748   3.504   0.000  0.00  0.00    -0.149 OA
HETATM    2  N   UNK     0       7.081   1.194   0.000  0.00  0.00    -0.252 N 
HETATM    3  N   UNK     0       4.414   1.194   0.000  0.00  0.00    -0.194 N 
HETATM    4  N   UNK     0       9.437   0.424   0.000  0.00  0.00    -0.239 NA
HETATM    5  N   UNK     0       5.748  -1.116   0.000  0.00  0.00    -0.111 NA
HETATM    6  N   UNK     0       4.414  -0.346   0.000  0.00  0.00    -0.060 NA
HETATM    7  C   UNK     0       7.081  -0.346   0.000  0.00  0.00     0.192 A 
HETATM    8  C   UNK     0       8.538  -0.815   0.000  0.00  0.00     0.153 A 
HETATM    9  C   UNK     0       5.748   1.964   0.000  0.00  0.00     0.283 A 
HETATM   10  C   UNK     0       8.538   1.663   0.000  0.00  0.00     0.239 A 
HETATM   11  C   UNK     0       3.080   1.964   0.000  0.00  0.00     0.159 C 
ENDROOT
BRANCH   8  12
HETATM   12  C   UNK     0       9.017  -2.279   0.000  0.00  0.00     0.221 C 
HETATM   13  O   UNK     0       7.988  -3.425   0.000  0.00  0.00    -0.173 OA
HETATM   14  N   UNK     0      10.524  -2.597   0.000  0.00  0.00    -0.069 NA
ENDBRANCH   8  12
TORSDOF 1
