REMARK  7 active torsions:
REMARK  status: ('A' for Active; 'I' for Inactive)
REMARK    1  A    between atoms: C_24  and  C_29 
REMARK    2  A    between atoms: C_32  and  O_38 
REMARK    3  A    between atoms: C_39  and  O_46 
REMARK    4  A    between atoms: C_45  and  O_50 
REMARK    5  A    between atoms: O_50  and  C_65 
REMARK    6  A    between atoms: C_65  and  C_66 
REMARK    7  A    between atoms: C_66  and  C_69 
ROOT
HETATM    1  N   UNK     0      27.800 -28.423   0.000  0.00  0.00    -0.301 N 
HETATM    2  C   UNK     0      29.109 -27.653   0.000  0.00  0.00     0.121 A 
HETATM    3  C   UNK     0      27.800 -29.963   0.000  0.00  0.00     0.218 C 
HETATM    4  C   UNK     0      26.414 -27.653   0.000  0.00  0.00     0.109 A 
HETATM    5  C   UNK     0      30.418 -28.423   0.000  0.00  0.00     0.311 C 
HETATM    6  C   UNK     0      29.109 -26.113   0.000  0.00  0.00    -0.003 A 
HETATM    7  C   UNK     0      26.414 -30.733   0.000  0.00  0.00     0.177 C 
HETATM    8  O   UNK     0      29.109 -30.733   0.000  0.00  0.00    -0.169 OA
HETATM    9  C   UNK     0      26.414 -26.113   0.000  0.00  0.00     0.029 A 
HETATM   10  O   UNK     0      31.727 -27.653   0.000  0.00  0.00    -0.305 OA
HETATM   11  O   UNK     0      30.418 -29.655   0.000  0.00  0.00    -0.258 OA
HETATM   12  C   UNK     0      27.800 -25.266   0.000  0.00  0.00     0.030 A 
HETATM   13  C   UNK     0      26.414 -32.273   0.000  0.00  0.00     0.166 A 
HETATM   14  O   UNK     0      25.105 -29.886   0.000  0.00  0.00    -0.189 OA
HETATM   15  C   UNK     0      33.113 -28.423   0.000  0.00  0.00     0.182 A 
HETATM   16  O   UNK     0      27.723 -33.043   0.000  0.00  0.00    -0.361 OA
HETATM   17  C   UNK     0      25.028 -33.043   0.000  0.00  0.00     0.034 A 
HETATM   18  O   UNK     0      26.106 -33.813   0.000  0.00  0.00     0.000 OA
HETATM   19  C   UNK     0      34.422 -27.653   0.000  0.00  0.00    -0.003 A 
HETATM   20  C   UNK     0      33.113 -29.963   0.000  0.00  0.00     0.075 A 
HETATM   21  C   UNK     0      27.723 -34.583   0.000  0.00  0.00     0.152 A 
HETATM   22  C   UNK     0      25.028 -34.506   0.000  0.00  0.00     0.005 A 
HETATM   23  C   UNK     0      23.719 -32.196   0.000  0.00  0.00     0.003 C 
HETATM   24  C   UNK     0      35.808 -28.423   0.000  0.00  0.00     0.086 A 
HETATM   25  C   UNK     0      34.422 -26.113   0.000  0.00  0.00     0.030 C 
HETATM   26  C   UNK     0      34.422 -30.733   0.000  0.00  0.00     0.072 A 
HETATM   27  C   UNK     0      29.032 -35.353   0.000  0.00  0.00     0.071 C 
HETATM   28  C   UNK     0      26.414 -35.353   0.000  0.00  0.00     0.021 A 
HETATM   29  C   UNK     0      34.422 -32.273   0.000  0.00  0.00    -0.021 C 
HETATM   30  O   UNK     0      35.808 -29.886   0.000  0.00  0.00    -0.313 OA
HETATM   31  C   UNK     0      29.032 -36.893   0.000  0.00  0.00     0.066 C 
HETATM   32  C   UNK     0      35.808 -33.043   0.000  0.00  0.00     0.048 C 
HETATM   33  C   UNK     0      33.113 -33.043   0.000  0.00  0.00     0.028 C 
HETATM   34  C   UNK     0      30.341 -37.663   0.000  0.00  0.00    -0.026 C 
HETATM   35  C   UNK     0      35.808 -34.506   0.000  0.00  0.00    -0.012 C 
HETATM   36  C   UNK     0      30.341 -39.203   0.000  0.00  0.00     0.024 C 
HETATM   37  C   UNK     0      31.727 -36.893   0.000  0.00  0.00     0.028 C 
HETATM   38  C   UNK     0      37.117 -35.276   0.000  0.00  0.00     0.148 C 
HETATM   39  C   UNK     0      34.422 -35.276   0.000  0.00  0.00     0.029 C 
HETATM   40  C   UNK     0      31.650 -39.973   0.000  0.00  0.00     0.005 C 
HETATM   41  C   UNK     0      37.117 -36.816   0.000  0.00  0.00     0.144 A 
HETATM   42  O   UNK     0      38.426 -34.506   0.000  0.00  0.00    -0.189 OA
HETATM   43  C   UNK     0      31.650 -41.513   0.000  0.00  0.00     0.005 C 
HETATM   44  C   UNK     0      38.426 -37.586   0.000  0.00  0.00     0.151 A 
HETATM   45  O   UNK     0      35.731 -37.586   0.000  0.00  0.00    -0.322 OA
HETATM   46  C   UNK     0      33.036 -42.283   0.000  0.00  0.00     0.026 C 
HETATM   47  C   UNK     0      38.426 -39.126   0.000  0.00  0.00     0.004 A 
HETATM   48  O   UNK     0      39.735 -36.816   0.000  0.00  0.00    -0.188 OA
HETATM   49  C   UNK     0      35.731 -39.126   0.000  0.00  0.00     0.175 A 
HETATM   50  C   UNK     0      34.345 -41.513   0.000  0.00  0.00    -0.031 C 
HETATM   51  C   UNK     0      37.117 -39.896   0.000  0.00  0.00     0.002 A 
HETATM   52  C   UNK     0      39.735 -39.896   0.000  0.00  0.00     0.033 C 
HETATM   53  C   UNK     0      35.885 -41.513   0.000  0.00  0.00    -0.028 C 
HETATM   54  C   UNK     0      36.270 -42.976   0.000  0.00  0.00     0.030 C 
ENDROOT
BRANCH  24  55
HETATM   55  C   UNK     0      37.117 -27.653   0.000  0.00  0.00    -0.015 A 
HETATM   56  C   UNK     0      38.426 -28.423   0.000  0.00  0.00     0.077 A 
HETATM   57  C   UNK     0      39.735 -27.653   0.000  0.00  0.00     0.094 A 
HETATM   58  C   UNK     0      39.735 -26.113   0.000  0.00  0.00     0.093 A 
HETATM   59  C   UNK     0      38.426 -25.343   0.000  0.00  0.00     0.057 A 
HETATM   60  C   UNK     0      37.117 -26.113   0.000  0.00  0.00     0.031 A 
BRANCH  57  61
HETATM   61  O   UNK     0      41.121 -28.423   0.000  0.00  0.00    -0.330 OA
HETATM   62  C   UNK     0      41.121 -29.964   0.000  0.00  0.00     0.181 C 
ENDBRANCH  57  61
BRANCH  58  63
HETATM   63  O   UNK     0      41.121 -25.266   0.000  0.00  0.00    -0.306 OA
BRANCH  63  64
HETATM   64  C   UNK     0      42.495 -26.014   0.000  0.00  0.00     0.280 C 
HETATM   65  O   UNK     0      42.534 -27.584   0.000  0.00  0.00    -0.190 OA
BRANCH  64  66
HETATM   66  C   UNK     0      43.823 -25.202   0.000  0.00  0.00     0.140 A 
HETATM   67  C   UNK     0      43.784 -23.655   0.000  0.00  0.00     0.152 A 
HETATM   68  O   UNK     0      45.085 -22.860   0.000  0.00  0.00    -0.354 OA
HETATM   69  C   UNK     0      45.154 -24.080   0.000  0.00  0.00     0.152 A 
BRANCH  66  70
HETATM   70  C   UNK     0      45.188 -25.945   0.000  0.00  0.00     0.192 C 
HETATM   71  O   UNK     0      46.467 -25.163   0.000  0.00  0.00    -0.220 OA
ENDBRANCH  66  70
ENDBRANCH  64  66
ENDBRANCH  63  64
ENDBRANCH  58  63
ENDBRANCH  24  55
BRANCH  31  72
HETATM   72  O   UNK     0      27.723 -37.663   0.000  0.00  0.00    -0.333 OA
HETATM   73  C   UNK     0      27.723 -39.203   0.000  0.00  0.00     0.181 C 
ENDBRANCH  31  72
TORSDOF 7
