REMARK  0 active torsions:
REMARK  status: ('A' for Active; 'I' for Inactive)
ROOT
HETATM    1  S   UNK     0       6.574   2.787   0.000  0.00  0.00    -0.056 SA
HETATM    2  N   UNK     0       6.574  -1.833   0.000  0.00  0.00    -0.194 NA
HETATM    3  N   UNK     0       9.365   0.947   0.000  0.00  0.00    -0.239 NA
HETATM    4  N   UNK     0       9.365  -1.532   0.000  0.00  0.00    -0.225 NA
HETATM    5  N   UNK     0       5.241   0.477   0.000  0.00  0.00    -0.202 NA
HETATM    6  N   UNK     0       3.907  -1.833   0.000  0.00  0.00    -0.059 NA
HETATM    7  C   UNK     0       7.908   0.477   0.000  0.00  0.00     0.142 A 
HETATM    8  C   UNK     0       7.908  -1.063   0.000  0.00  0.00     0.182 A 
HETATM    9  C   UNK     0       6.574   1.247   0.000  0.00  0.00     0.159 A 
HETATM   10  C   UNK     0       5.241  -1.063   0.000  0.00  0.00     0.240 A 
HETATM   11  C   UNK     0      10.264  -0.293   0.000  0.00  0.00     0.253 A 
ENDROOT
TORSDOF 0
