REMARK  2 active torsions:
REMARK  status: ('A' for Active; 'I' for Inactive)
REMARK    1  A    between atoms: N_8  and  C_26 
REMARK    2  A    between atoms: C_24  and  C_26 
ROOT
HETATM    1  O   UNK     0      10.439   7.466   0.000  0.00  0.00    -0.324 OA
HETATM    2  O   UNK     0      12.570   3.718   0.000  0.00  0.00     0.000 OA
HETATM    3  O   UNK     0       6.414   5.050   0.000  0.00  0.00    -0.171 OA
HETATM    4  O   UNK     0      13.165   7.429   0.000  0.00  0.00    -0.190 OA
HETATM    5  O   UNK     0       7.122  -6.691   0.000  0.00  0.00    -0.195 OA
HETATM    6  N   UNK     0       7.748   2.740   0.000  0.00  0.00    -0.305 N 
HETATM    7  N   UNK     0       9.715  -0.803   0.000  0.00  0.00    -0.250 NA
HETATM    8  C   UNK     0      11.816   5.060   0.000  0.00  0.00     0.078 A 
HETATM    9  C   UNK     0      10.415   4.280   0.000  0.00  0.00    -0.032 A 
HETATM   10  C   UNK     0       9.081   1.970   0.000  0.00  0.00     0.060 A 
HETATM   11  C   UNK     0       6.612   1.713   0.000  0.00  0.00     0.132 A 
HETATM   12  C   UNK     0       9.081   5.050   0.000  0.00  0.00     0.042 A 
HETATM   13  C   UNK     0       7.236   0.315   0.000  0.00  0.00     0.002 A 
HETATM   14  C   UNK     0       8.759   0.473   0.000  0.00  0.00     0.087 A 
HETATM   15  C   UNK     0      10.415   2.740   0.000  0.00  0.00     0.067 A 
HETATM   16  C   UNK     0       7.748   4.280   0.000  0.00  0.00     0.192 A 
HETATM   17  C   UNK     0      13.356   5.042   0.000  0.00  0.00     0.009 A 
HETATM   18  C   UNK     0       9.056   6.653   0.000  0.00  0.00     0.174 A 
HETATM   19  C   UNK     0      11.828   6.664   0.000  0.00  0.00     0.273 A 
HETATM   20  C   UNK     0       6.564  -1.131   0.000  0.00  0.00     0.053 A 
HETATM   21  C   UNK     0       7.490  -2.429   0.000  0.00  0.00    -0.005 A 
HETATM   22  C   UNK     0       9.076  -2.264   0.000  0.00  0.00     0.056 A 
HETATM   23  C   UNK     0       6.790  -3.935   0.000  0.00  0.00     0.018 A 
HETATM   24  C   UNK     0      14.110   3.700   0.000  0.00  0.00     0.001 A 
HETATM   25  C   UNK     0      10.072  -3.593   0.000  0.00  0.00     0.052 A 
HETATM   26  C   UNK     0       7.755  -5.287   0.000  0.00  0.00     0.106 A 
HETATM   27  C   UNK     0       9.407  -5.115   0.000  0.00  0.00     0.060 A 
ENDROOT
BRANCH  23  28
HETATM   28  C   UNK     0       5.257  -4.077   0.000  0.00  0.00     0.126 C 
BRANCH  28  29
HETATM   29  N   UNK     0       4.613  -5.476   0.000  0.00  0.00    -0.362 N 
HETATM   30  C   UNK     0       3.080  -5.618   0.000  0.00  0.00     0.121 C 
HETATM   31  C   UNK     0       5.503  -6.733   0.000  0.00  0.00     0.121 C 
ENDBRANCH  28  29
ENDBRANCH  23  28
TORSDOF 2
