REMARK  2 active torsions:
REMARK  status: ('A' for Active; 'I' for Inactive)
REMARK    1  A    between atoms: N_8  and  C_11 
REMARK    2  A    between atoms: C_28  and  N_32 
REMARK       I    between atoms: N_32  and  C_33 
ROOT
HETATM    1  C   UNK     0      25.689 -25.845   0.000  0.00  0.00     0.073 A 
HETATM    2  C   UNK     0      25.689 -27.406   0.000  0.00  0.00     0.041 A 
HETATM    3  C   UNK     0      27.016 -28.187   0.000  0.00  0.00     0.193 A 
HETATM    4  N   UNK     0      28.343 -27.406   0.000  0.00  0.00    -0.288 N 
HETATM    5  C   UNK     0      28.343 -25.845   0.000  0.00  0.00     0.150 A 
HETATM    6  C   UNK     0      27.016 -25.064   0.000  0.00  0.00     0.093 A 
HETATM    7  C   UNK     0      27.016 -23.502   0.000  0.00  0.00     0.205 A 
HETATM    8  N   UNK     0      25.689 -22.722   0.000  0.00  0.00    -0.258 N 
HETATM    9  C   UNK     0      24.283 -23.502   0.000  0.00  0.00     0.272 A 
HETATM   10  N   UNK     0      24.283 -25.064   0.000  0.00  0.00    -0.276 N 
HETATM   11  O   UNK     0      28.343 -22.722   0.000  0.00  0.00    -0.170 OA
HETATM   12  O   UNK     0      22.956 -22.722   0.000  0.00  0.00    -0.150 OA
HETATM   13  O   UNK     0      27.016 -29.827   0.000  0.00  0.00    -0.171 OA
HETATM   14  C   UNK     0      29.749 -28.265   0.000  0.00  0.00     0.134 A 
HETATM   15  N   UNK     0      29.749 -25.064   0.000  0.00  0.00    -0.227 NA
HETATM   16  C   UNK     0      31.076 -25.845   0.000  0.00  0.00     0.101 A 
HETATM   17  C   UNK     0      31.076 -27.406   0.000  0.00  0.00     0.003 A 
HETATM   18  C   UNK     0      32.482 -28.187   0.000  0.00  0.00     0.054 A 
HETATM   19  C   UNK     0      33.809 -27.406   0.000  0.00  0.00    -0.003 A 
HETATM   20  C   UNK     0      33.809 -25.845   0.000  0.00  0.00     0.086 A 
HETATM   21  C   UNK     0      32.482 -25.064   0.000  0.00  0.00     0.139 A 
HETATM   22  F   UNK     0      32.482 -23.502   0.000  0.00  0.00    -0.207 F 
HETATM   23  I   UNK     0      35.136 -28.187   0.000  0.00  0.00    -0.051 I 
HETATM   24  C   UNK     0      24.283 -28.187   0.000  0.00  0.00     0.055 A 
HETATM   25  C   UNK     0      22.956 -25.845   0.000  0.00  0.00     0.043 A 
HETATM   26  C   UNK     0      21.629 -25.064   0.000  0.00  0.00     0.085 A 
HETATM   27  C   UNK     0      20.301 -25.845   0.000  0.00  0.00     0.045 A 
HETATM   28  C   UNK     0      20.301 -27.485   0.000  0.00  0.00     0.046 A 
HETATM   29  C   UNK     0      21.629 -28.187   0.000  0.00  0.00     0.029 A 
HETATM   30  C   UNK     0      22.956 -27.406   0.000  0.00  0.00    -0.027 A 
ENDROOT
BRANCH  27  31
HETATM   31  N   UNK     0      18.896 -25.064   0.000  0.00  0.00    -0.232 NA
HETATM   32  C   UNK     0      17.568 -25.845   0.000  0.00  0.00     0.189 C 
HETATM   33  C   UNK     0      16.241 -25.064   0.000  0.00  0.00     0.083 C 
HETATM   34  O   UNK     0      17.568 -27.406   0.000  0.00  0.00    -0.174 OA
ENDBRANCH  27  31
BRANCH   8  35
HETATM   35  C   UNK     0      25.689 -21.160   0.000  0.00  0.00     0.025 A 
HETATM   36  C   UNK     0      24.908 -19.833   0.000  0.00  0.00     0.046 A 
HETATM   37  C   UNK     0      26.470 -19.833   0.000  0.00  0.00     0.046 A 
ENDBRANCH   8  35
TORSDOF 2
