REMARK  9 active torsions:
REMARK  status: ('A' for Active; 'I' for Inactive)
REMARK    1  A    between atoms: C_3  and  C_13 
REMARK    2  A    between atoms: C_7  and  C_8 
REMARK    3  A    between atoms: C_7  and  C_20 
REMARK    4  A    between atoms: C_8  and  C_9 
REMARK    5  A    between atoms: C_9  and  C_10 
REMARK    6  A    between atoms: C_10  and  C_11 
REMARK    7  A    between atoms: C_11  and  C_12 
REMARK    8  A    between atoms: C_12  and  C_18 
REMARK    9  A    between atoms: C_13  and  C_18 
ROOT
HETATM    1  C   UNK     0       5.335   1.540   0.000  0.00  0.00     0.000 C 
HETATM    2  C   UNK     0       5.335   3.080   0.000  0.00  0.00     0.000 C 
ENDROOT
BRANCH   1   3
HETATM    3  C   UNK     0       6.668   0.770   0.000  0.00  0.00     0.000 C 
BRANCH   3   4
HETATM    4  C   UNK     0       8.002   1.540   0.000  0.00  0.00     0.000 C 
BRANCH   4   5
HETATM    5  C   UNK     0       9.336   0.770   0.000  0.00  0.00     0.001 C 
BRANCH   5   6
HETATM    6  C   UNK     0      10.669   1.540   0.000  0.00  0.00     0.011 C 
HETATM    7  C   UNK     0      10.669   3.080   0.000  0.00  0.00     0.001 C 
BRANCH   6   8
HETATM    8  C   UNK     0      12.003   0.770   0.000  0.00  0.00     0.098 C 
BRANCH   8   9
HETATM    9  C   UNK     0      13.337   1.540   0.000  0.00  0.00     0.185 C 
HETATM   10  O   UNK     0      13.337   3.080   0.000  0.00  0.00    -0.647 OA
HETATM   11  O   UNK     0      14.671   0.770   0.000  0.00  0.00    -0.647 OA
ENDBRANCH   8   9
ENDBRANCH   6   8
ENDBRANCH   5   6
ENDBRANCH   4   5
ENDBRANCH   3   4
ENDBRANCH   1   3
BRANCH   1  12
HETATM   12  C   UNK     0       4.001   0.770   0.000  0.00  0.00     0.004 C 
BRANCH  12  13
HETATM   13  C   UNK     0       2.667   1.540   0.000  0.00  0.00     0.021 C 
BRANCH  13  14
HETATM   14  C   UNK     0       1.334   0.770   0.000  0.00  0.00    -0.053 A 
HETATM   15  C   UNK     0       0.000   1.540   0.000  0.00  0.00     0.015 A 
HETATM   16  C   UNK     0       0.770   2.874   0.000  0.00  0.00     0.004 A 
HETATM   17  C   UNK     0      -0.770   2.874   0.000  0.00  0.00     0.004 A 
HETATM   18  C   UNK     0      -1.334   0.770   0.000  0.00  0.00     0.004 A 
HETATM   19  C   UNK     0      -1.334  -0.770   0.000  0.00  0.00     0.005 A 
HETATM   20  C   UNK     0       0.000  -1.540   0.000  0.00  0.00     0.021 A 
HETATM   21  C   UNK     0       1.334  -0.770   0.000  0.00  0.00    -0.052 A 
HETATM   22  C   UNK     0       2.667  -1.540   0.000  0.00  0.00     0.026 C 
ENDBRANCH  13  14
ENDBRANCH  12  13
ENDBRANCH   1  12
TORSDOF 9
