REMARK  3 active torsions:
REMARK  status: ('A' for Active; 'I' for Inactive)
REMARK    1  A    between atoms: N_9  and  C_11 
REMARK    2  A    between atoms: C_14  and  C_15 
REMARK    3  A    between atoms: C_18  and  C_20 
ROOT
HETATM    1  O   UNK     0       3.080   0.574   0.000  0.00  0.00    -0.149 OA
HETATM    2  O   UNK     0       5.748   5.194   0.000  0.00  0.00    -0.169 OA
HETATM    3  N   UNK     0       5.748   0.574   0.000  0.00  0.00    -0.271 N 
HETATM    4  N   UNK     0       4.414   2.884   0.000  0.00  0.00    -0.178 NA
HETATM    5  C   UNK     0       7.081   1.344   0.000  0.00  0.00     0.145 A 
HETATM    6  C   UNK     0       4.414   1.344   0.000  0.00  0.00     0.285 A 
HETATM    7  C   UNK     0       7.081   2.884   0.000  0.00  0.00     0.116 A 
HETATM    8  C   UNK     0       5.748   3.654   0.000  0.00  0.00     0.217 A 
ENDROOT
BRANCH   3   9
HETATM    9  C   UNK     0       5.748  -0.966   0.000  0.00  0.00     0.149 A 
HETATM   10  O   UNK     0       6.993  -1.872   0.000  0.00  0.00    -0.294 OA
HETATM   11  C   UNK     0       6.518  -3.336   0.000  0.00  0.00     0.134 A 
HETATM   12  C   UNK     0       4.977  -3.336   0.000  0.00  0.00     0.138 A 
HETATM   13  O   UNK     0       4.072  -4.582   0.000  0.00  0.00    -0.193 OA
HETATM   14  C   UNK     0       4.501  -1.872   0.000  0.00  0.00     0.126 A 
BRANCH  11  15
HETATM   15  C   UNK     0       7.423  -4.582   0.000  0.00  0.00     0.235 C 
HETATM   16  O   UNK     0       8.954  -4.421   0.000  0.00  0.00    -0.213 OA
ENDBRANCH  11  15
ENDBRANCH   3   9
BRANCH   7  17
HETATM   17  C   UNK     0       8.415   3.654   0.000  0.00  0.00     0.420 C 
HETATM   18  F   UNK     0       9.185   2.320   0.000  0.00  0.00    -0.166 F 
HETATM   19  F   UNK     0       9.748   4.424   0.000  0.00  0.00    -0.166 F 
HETATM   20  F   UNK     0       7.645   4.987   0.000  0.00  0.00    -0.166 F 
ENDBRANCH   7  17
TORSDOF 3
