REMARK  17 active torsions:
REMARK  status: ('A' for Active; 'I' for Inactive)
REMARK    1  A    between atoms: C_7  and  C_10 
REMARK    2  A    between atoms: C_10  and  C_17 
REMARK    3  A    between atoms: C_20  and  N_23 
REMARK       I    between atoms: N_23  and  C_31 
REMARK    4  A    between atoms: C_31  and  C_32 
REMARK    5  A    between atoms: C_32  and  N_33 
REMARK    6  A    between atoms: C_32  and  C_34 
REMARK    7  A    between atoms: N_33  and  C_36 
REMARK    8  A    between atoms: C_37  and  N_49 
REMARK       I    between atoms: N_49  and  C_50 
REMARK    9  A    between atoms: C_50  and  C_51 
REMARK   10  A    between atoms: C_51  and  C_53 
REMARK   11  A    between atoms: C_51  and  N_59 
REMARK   12  A    between atoms: C_53  and  C_54 
REMARK       I    between atoms: N_59  and  C_60 
REMARK   13  A    between atoms: C_60  and  C_62 
REMARK   14  A    between atoms: C_73  and  C_74 
REMARK       I    between atoms: C_74  and  N_75 
REMARK   15  A    between atoms: C_86  and  C_90 
REMARK   16  A    between atoms: C_89  and  N_91 
REMARK   17  A    between atoms: C_89  and  C_92 
REMARK       I    between atoms: C_90  and  N_91 
ROOT
HETATM    1  C   UNK     0       6.084   0.149   0.000  0.00  0.00     0.208 A 
HETATM    2  C   UNK     0       6.084  -1.391   0.000  0.00  0.00     0.103 A 
HETATM    3  O   UNK     0       4.751   0.919   0.000  0.00  0.00    -0.170 OA
HETATM    4  N   UNK     0       4.751  -2.161   0.000  0.00  0.00    -0.222 NA
HETATM    5  O   UNK     0       3.417   0.149   0.000  0.00  0.00    -0.285 OA
HETATM    6  C   UNK     0       3.417  -1.391   0.000  0.00  0.00     0.199 A 
HETATM    7  C   UNK     0       2.083  -2.161   0.000  0.00  0.00     0.107 A 
HETATM    8  N   UNK     0       0.750  -1.391   0.000  0.00  0.00    -0.280 N 
HETATM    9  C   UNK     0      -0.584  -2.161   0.000  0.00  0.00     0.212 A 
HETATM   10  C   UNK     0      -1.917  -1.391   0.000  0.00  0.00     0.108 A 
HETATM   11  O   UNK     0      -0.584  -3.701   0.000  0.00  0.00    -0.169 OA
HETATM   12  C   UNK     0      -1.917   0.149   0.000  0.00  0.00     0.073 A 
HETATM   13  C   UNK     0      -0.584   0.919   0.000  0.00  0.00    -0.014 A 
HETATM   14  C   UNK     0      -0.584   2.459   0.000  0.00  0.00     0.072 A 
HETATM   15  C   UNK     0       0.750   0.149   0.000  0.00  0.00     0.084 A 
HETATM   16  C   UNK     0       0.750   3.229   0.000  0.00  0.00     0.093 A 
HETATM   17  C   UNK     0       2.084   0.919   0.000  0.00  0.00     0.144 A 
HETATM   18  C   UNK     0       2.084   2.459   0.000  0.00  0.00     0.169 A 
HETATM   19  O   UNK     0       3.417   3.229   0.000  0.00  0.00    -0.187 OA
HETATM   20  C   UNK     0       7.418  -2.161   0.000  0.00  0.00     0.052 A 
HETATM   21  C   UNK     0       8.752  -1.391   0.000  0.00  0.00     0.029 A 
HETATM   22  C   UNK     0      10.086  -2.161   0.000  0.00  0.00     0.002 C 
HETATM   23  C   UNK     0       8.752   0.149   0.000  0.00  0.00     0.108 A 
HETATM   24  N   UNK     0       7.418   0.919   0.000  0.00  0.00    -0.306 N 
HETATM   25  C   UNK     0       7.418   2.459   0.000  0.00  0.00     0.081 A 
HETATM   26  C   UNK     0       6.085   3.229   0.000  0.00  0.00     0.050 A 
HETATM   27  C   UNK     0       6.085   4.769   0.000  0.00  0.00     0.033 A 
HETATM   28  C   UNK     0       4.751   5.539   0.000  0.00  0.00     0.129 A 
HETATM   29  N   UNK     0       3.417   4.769   0.000  0.00  0.00    -0.241 NA
HETATM   30  C   UNK     0       2.084   5.539   0.000  0.00  0.00     0.233 A 
HETATM   31  N   UNK     0       0.750   4.769   0.000  0.00  0.00    -0.217 NA
HETATM   32  N   UNK     0       2.084   7.079   0.000  0.00  0.00    -0.060 NA
ENDROOT
BRANCH  10  33
HETATM   33  N   UNK     0      -3.251  -2.161   0.000  0.00  0.00    -0.219 NA
HETATM   34  C   UNK     0      -4.585  -1.391   0.000  0.00  0.00     0.229 C 
HETATM   35  O   UNK     0      -4.585   0.149   0.000  0.00  0.00    -0.168 OA
BRANCH  34  36
HETATM   36  C   UNK     0      -5.918  -2.161   0.000  0.00  0.00     0.138 C 
BRANCH  36  37
HETATM   37  N   UNK     0      -7.252  -1.391   0.000  0.00  0.00    -0.219 NA
BRANCH  37  38
HETATM   38  C   UNK     0      -8.586  -2.161   0.000  0.00  0.00     0.196 A 
HETATM   39  C   UNK     0      -9.919  -1.391   0.000  0.00  0.00     0.106 A 
HETATM   40  C   UNK     0     -11.253  -2.161   0.000  0.00  0.00     0.074 A 
HETATM   41  C   UNK     0     -11.253  -3.701   0.000  0.00  0.00    -0.011 A 
HETATM   42  C   UNK     0     -12.500  -4.605   0.000  0.00  0.00     0.148 A 
HETATM   43  C   UNK     0     -10.008  -4.607   0.000  0.00  0.00     0.026 A 
HETATM   44  N   UNK     0     -12.025  -6.070   0.000  0.00  0.00    -0.271 NA
HETATM   45  C   UNK     0     -10.485  -6.071   0.000  0.00  0.00     0.055 A 
HETATM   46  C   UNK     0      -9.447  -7.214   0.000  0.00  0.00     0.046 A 
HETATM   47  C   UNK     0      -7.941  -6.890   0.000  0.00  0.00     0.013 A 
HETATM   48  C   UNK     0      -7.469  -5.425   0.000  0.00  0.00     0.052 A 
HETATM   49  C   UNK     0      -8.503  -4.283   0.000  0.00  0.00     0.080 A 
HETATM   50  O   UNK     0      -8.586  -3.701   0.000  0.00  0.00    -0.293 OA
BRANCH  39  51
HETATM   51  N   UNK     0      -9.919   0.149   0.000  0.00  0.00    -0.220 NA
HETATM   52  C   UNK     0     -11.253   0.919   0.000  0.00  0.00     0.226 C 
HETATM   53  O   UNK     0     -12.587   0.149   0.000  0.00  0.00    -0.168 OA
BRANCH  52  54
HETATM   54  C   UNK     0     -11.253   2.459   0.000  0.00  0.00     0.107 C 
BRANCH  54  55
HETATM   55  C   UNK     0      -9.919   3.229   0.000  0.00  0.00     0.088 C 
BRANCH  55  56
HETATM   56  C   UNK     0      -8.586   2.459   0.000  0.00  0.00     0.301 A 
HETATM   57  N   UNK     0      -7.339   3.363   0.000  0.00  0.00     0.379 N 
HETATM   58  C   UNK     0      -6.094   2.457   0.000  0.00  0.00     0.576 A 
HETATM   59  N   UNK     0      -6.571   0.993   0.000  0.00  0.00     0.381 N 
HETATM   60  C   UNK     0      -8.111   0.994   0.000  0.00  0.00     0.329 A 
ENDBRANCH  55  56
ENDBRANCH  54  55
BRANCH  54  61
HETATM   61  N   UNK     0     -12.645   3.118   0.000  0.00  0.00    -0.220 NA
HETATM   62  C   UNK     0     -12.659   5.006   0.000  0.00  0.00     0.226 C 
HETATM   63  O   UNK     0     -13.998   5.766   0.000  0.00  0.00    -0.168 OA
BRANCH  62  64
HETATM   64  C   UNK     0     -11.331   5.786   0.000  0.00  0.00     0.100 A 
HETATM   65  C   UNK     0     -11.331   7.326   0.000  0.00  0.00     0.054 A 
HETATM   66  C   UNK     0      -9.866   7.801   0.000  0.00  0.00     0.065 A 
HETATM   67  C   UNK     0      -8.961   6.556   0.000  0.00  0.00     0.255 A 
HETATM   68  N   UNK     0      -9.866   5.309   0.000  0.00  0.00    -0.242 NA
HETATM   69  O   UNK     0      -7.421   6.556   0.000  0.00  0.00    -0.196 OA
ENDBRANCH  62  64
ENDBRANCH  54  61
ENDBRANCH  52  54
ENDBRANCH  39  51
ENDBRANCH  37  38
ENDBRANCH  36  37
BRANCH  36  70
HETATM   70  C   UNK     0      -5.918  -3.701   0.000  0.00  0.00     0.232 C 
HETATM   71  O   UNK     0      -4.585  -4.471   0.000  0.00  0.00    -0.214 OA
ENDBRANCH  36  70
ENDBRANCH  34  36
ENDBRANCH  10  33
BRANCH   7  72
HETATM   72  C   UNK     0       2.083  -3.701   0.000  0.00  0.00     0.019 C 
BRANCH  72  73
HETATM   73  C   UNK     0       0.930  -5.016   0.000  0.00  0.00     0.001 A 
HETATM   74  C   UNK     0      -0.535  -5.491   0.000  0.00  0.00    -0.011 A 
HETATM   75  C   UNK     0      -1.869  -4.721   0.000  0.00  0.00     0.027 A 
HETATM   76  C   UNK     0      -0.535  -7.031   0.000  0.00  0.00     0.050 A 
HETATM   77  C   UNK     0      -3.202  -5.491   0.000  0.00  0.00     0.005 A 
HETATM   78  C   UNK     0      -3.202  -7.031   0.000  0.00  0.00     0.007 A 
HETATM   79  C   UNK     0      -1.869  -7.801   0.000  0.00  0.00     0.045 A 
HETATM   80  N   UNK     0       0.930  -7.507   0.000  0.00  0.00    -0.271 NA
HETATM   81  C   UNK     0       1.835  -6.261   0.000  0.00  0.00     0.151 A 
ENDBRANCH  72  73
ENDBRANCH   7  72
BRANCH  25  82
HETATM   82  C   UNK     0       8.752   3.229   0.000  0.00  0.00     0.206 C 
HETATM   83  N   UNK     0       8.752   4.769   0.000  0.00  0.00    -0.306 N 
HETATM   84  C   UNK     0       7.505   5.673   0.000  0.00  0.00     0.108 A 
HETATM   85  C   UNK     0       9.997   5.675   0.000  0.00  0.00     0.082 A 
HETATM   86  C   UNK     0       7.980   7.138   0.000  0.00  0.00     0.031 A 
HETATM   87  C   UNK     0       9.520   7.139   0.000  0.00  0.00     0.050 A 
HETATM   88  O   UNK     0      10.086   2.459   0.000  0.00  0.00    -0.170 OA
BRANCH  85  89
HETATM   89  C   UNK     0      11.331   4.905   0.000  0.00  0.00     0.220 C 
HETATM   90  O   UNK     0      12.664   5.675   0.000  0.00  0.00    -0.168 OA
HETATM   91  N   UNK     0      11.331   3.365   0.000  0.00  0.00    -0.240 NA
BRANCH  91  92
HETATM   92  C   UNK     0      12.664   2.595   0.000  0.00  0.00     0.202 C 
BRANCH  92  93
HETATM   93  C   UNK     0      12.664   1.055   0.000  0.00  0.00     0.475 C 
HETATM   94  N   UNK     0      13.998   0.285   0.000  0.00  0.00     0.655 N 
HETATM   95  O   UNK     0      11.331   0.285   0.000  0.00  0.00    -0.181 OA
ENDBRANCH  92  93
ENDBRANCH  91  92
ENDBRANCH  85  89
ENDBRANCH  25  82
TORSDOF 17
