REMARK  11 active torsions:
REMARK  status: ('A' for Active; 'I' for Inactive)
REMARK    1  A    between atoms: C_3  and  O_15 
REMARK    2  A    between atoms: C_21  and  O_31 
REMARK    3  A    between atoms: C_25  and  C_26 
REMARK    4  A    between atoms: C_26  and  O_28 
REMARK    5  A    between atoms: O_28  and  C_29 
REMARK    6  A    between atoms: C_29  and  C_33 
REMARK    7  A    between atoms: O_31  and  C_37 
REMARK    8  A    between atoms: C_33  and  C_34 
REMARK    9  A    between atoms: C_34  and  C_35 
REMARK   10  A    between atoms: C_39  and  N_45 
REMARK       I    between atoms: N_45  and  C_46 
REMARK   11  A    between atoms: C_46  and  C_47 
ROOT
HETATM    1  C   UNK     0     -10.665   4.180   0.000  0.00  0.00     0.011 A 
HETATM    2  C   UNK     0     -10.668   2.634   0.000  0.00  0.00     0.051 A 
HETATM    3  C   UNK     0      -9.331   1.859   0.000  0.00  0.00     0.073 A 
HETATM    4  C   UNK     0      -9.335   4.947   0.000  0.00  0.00     0.029 A 
HETATM    5  C   UNK     0      -7.998   4.186   0.000  0.00  0.00     0.007 A 
HETATM    6  C   UNK     0      -7.991   2.639   0.000  0.00  0.00     0.042 A 
HETATM    7  C   UNK     0      -6.654   1.871   0.000  0.00  0.00     0.134 A 
HETATM    8  C   UNK     0      -6.667   4.966   0.000  0.00  0.00     0.129 A 
HETATM    9  C   UNK     0      -5.321   4.197   0.000  0.00  0.00     0.054 A 
HETATM   10  C   UNK     0      -5.316   2.657   0.000  0.00  0.00     0.054 A 
HETATM   11  C   UNK     0      -3.990   1.891   0.000  0.00  0.00     0.131 A 
HETATM   12  C   UNK     0      -4.006   4.968   0.000  0.00  0.00     0.129 A 
HETATM   13  O   UNK     0      -6.675   6.507   0.000  0.00  0.00    -0.190 OA
HETATM   14  O   UNK     0      -6.646   0.330   0.000  0.00  0.00    -0.190 OA
HETATM   15  O   UNK     0      -4.017   6.508   0.000  0.00  0.00    -0.190 OA
HETATM   16  O   UNK     0      -3.983   0.350   0.000  0.00  0.00    -0.190 OA
HETATM   17  C   UNK     0      -2.670   4.216   0.000  0.00  0.00     0.004 A 
HETATM   18  C   UNK     0      -2.664   2.678   0.000  0.00  0.00     0.022 A 
HETATM   19  C   UNK     0      -1.335   1.915   0.000  0.00  0.00     0.192 A 
HETATM   20  C   UNK     0      -0.004   2.689   0.000  0.00  0.00    -0.026 A 
HETATM   21  C   UNK     0      -0.011   4.227   0.000  0.00  0.00     0.057 A 
HETATM   22  C   UNK     0      -1.348   4.991   0.000  0.00  0.00     0.035 A 
HETATM   23  C   UNK     0       1.322   4.998   0.000  0.00  0.00     0.186 A 
HETATM   24  O   UNK     0       1.318   6.541   0.000  0.00  0.00    -0.220 OA
HETATM   25  O   UNK     0       1.317   3.459   0.000  0.00  0.00     0.000 OA
ENDROOT
BRANCH  19  26
HETATM   26  O   UNK     0      -1.331   0.374   0.000  0.00  0.00    -0.334 OA
BRANCH  26  27
HETATM   27  C   UNK     0       0.007  -0.389   0.000  0.00  0.00     0.246 A 
HETATM   28  C   UNK     0       0.001  -1.924   0.000  0.00  0.00     0.110 A 
HETATM   29  C   UNK     0       1.331  -2.694   0.000  0.00  0.00     0.093 A 
HETATM   30  C   UNK     0       2.669  -1.922   0.000  0.00  0.00     0.163 A 
HETATM   31  C   UNK     0       2.668  -0.379   0.000  0.00  0.00     0.101 A 
HETATM   32  O   UNK     0       4.004  -2.698   0.000  0.00  0.00    -0.187 OA
HETATM   33  O   UNK     0       1.329   0.392   0.000  0.00  0.00    -0.308 OA
HETATM   34  C   UNK     0       4.004   0.386   0.000  0.00  0.00     0.060 C 
BRANCH  29  35
HETATM   35  N   UNK     0       1.329  -4.235   0.000  0.00  0.00    -0.219 NA
HETATM   36  C   UNK     0      -0.007  -5.000   0.000  0.00  0.00     0.284 C 
HETATM   37  O   UNK     0      -0.008  -6.541   0.000  0.00  0.00    -0.165 OA
BRANCH  36  38
HETATM   38  C   UNK     0      -1.341  -4.233   0.000  0.00  0.00     0.460 C 
HETATM   39  F   UNK     0      -1.340  -2.692   0.000  0.00  0.00    -0.163 F 
HETATM   40  F   UNK     0      -2.678  -4.998   0.000  0.00  0.00    -0.163 F 
HETATM   41  F   UNK     0      -2.687  -3.456   0.000  0.00  0.00    -0.163 F 
ENDBRANCH  36  38
ENDBRANCH  29  35
ENDBRANCH  26  27
ENDBRANCH  19  26
BRANCH  23  42
HETATM   42  C   UNK     0       2.662   4.238   0.000  0.00  0.00     0.178 C 
BRANCH  42  43
HETATM   43  O   UNK     0       3.993   5.012   0.000  0.00  0.00    -0.326 OA
BRANCH  43  44
HETATM   44  C   UNK     0       5.325   4.252   0.000  0.00  0.00     0.269 C 
HETATM   45  O   UNK     0       5.333   2.711   0.000  0.00  0.00    -0.190 OA
BRANCH  44  46
HETATM   46  C   UNK     0       6.657   5.026   0.000  0.00  0.00     0.065 C 
BRANCH  46  47
HETATM   47  C   UNK     0       7.996   4.267   0.000  0.00  0.00     0.005 C 
BRANCH  47  48
HETATM   48  C   UNK     0       9.328   5.040   0.000  0.00  0.00     0.000 C 
HETATM   49  C   UNK     0      10.668   4.281   0.000  0.00  0.00     0.000 C 
ENDBRANCH  47  48
ENDBRANCH  46  47
ENDBRANCH  44  46
ENDBRANCH  43  44
ENDBRANCH  42  43
ENDBRANCH  23  42
BRANCH   3  50
HETATM   50  O   UNK     0      -9.321   0.319   0.000  0.00  0.00    -0.332 OA
HETATM   51  C   UNK     0      -7.985  -0.447   0.000  0.00  0.00     0.181 C 
ENDBRANCH   3  50
TORSDOF 11
