REMARK  3 active torsions:
REMARK  status: ('A' for Active; 'I' for Inactive)
REMARK    1  A    between atoms: C_2  and  N_4 
REMARK    2  A    between atoms: N_4  and  C_9 
REMARK    3  A    between atoms: C_22  and  C_26 
ROOT
HETATM    1  C   UNK     0      10.679  -5.400   0.000  0.00  0.00     0.033 A 
HETATM    2  C   UNK     0      12.016  -4.619   0.000  0.00  0.00     0.157 A 
HETATM    3  C   UNK     0      10.679  -6.928   0.000  0.00  0.00     0.062 A 
HETATM    4  C   UNK     0       9.359  -4.619   0.000  0.00  0.00     0.083 A 
HETATM    5  N   UNK     0      13.353  -5.400   0.000  0.00  0.00    -0.226 NA
HETATM    6  C   UNK     0       9.359  -7.692   0.000  0.00  0.00     0.098 A 
HETATM    7  C   UNK     0       8.022  -6.928   0.000  0.00  0.00     0.102 A 
HETATM    8  C   UNK     0       8.022  -5.400   0.000  0.00  0.00     0.096 A 
HETATM    9  N   UNK     0      12.016  -7.692   0.000  0.00  0.00    -0.249 NA
HETATM   10  C   UNK     0      13.353  -6.928   0.000  0.00  0.00     0.252 A 
HETATM   11  O   UNK     0       6.685  -7.710   0.000  0.00  0.00    -0.312 OA
HETATM   12  C   UNK     0       5.348  -6.928   0.000  0.00  0.00     0.100 A 
HETATM   13  O   UNK     0       6.685  -4.619   0.000  0.00  0.00    -0.326 OA
HETATM   14  C   UNK     0       5.348  -5.400   0.000  0.00  0.00     0.199 A 
ENDROOT
BRANCH   2  15
HETATM   15  N   UNK     0      12.016  -3.073   0.000  0.00  0.00    -0.230 NA
BRANCH  15  16
HETATM   16  C   UNK     0      13.336  -2.327   0.000  0.00  0.00     0.085 A 
HETATM   17  C   UNK     0      14.673  -3.073   0.000  0.00  0.00     0.136 A 
HETATM   18  C   UNK     0      16.010  -2.327   0.000  0.00  0.00     0.086 A 
HETATM   19  F   UNK     0      14.673  -4.619   0.000  0.00  0.00    -0.207 F 
HETATM   20  C   UNK     0      16.010  -0.764   0.000  0.00  0.00    -0.002 A 
HETATM   21  C   UNK     0      14.673   0.000   0.000  0.00  0.00     0.036 A 
HETATM   22 Br   UNK     0      17.364   0.000   0.000  0.00  0.00    -0.058 Br
HETATM   23  C   UNK     0      13.336  -0.764   0.000  0.00  0.00     0.053 A 
ENDBRANCH  15  16
ENDBRANCH   2  15
BRANCH  12  24
HETATM   24  C   UNK     0       4.011  -7.727   0.000  0.00  0.00    -0.019 A 
HETATM   25  C   UNK     0       4.028  -9.272   0.000  0.00  0.00     0.048 A 
HETATM   26  C   UNK     0       2.691 -10.037   0.000  0.00  0.00     0.102 A 
HETATM   27  N   UNK     0       1.354  -9.272   0.000  0.00  0.00    -0.366 N 
HETATM   28  C   UNK     0       1.337  -7.744   0.000  0.00  0.00     0.102 A 
HETATM   29  C   UNK     0       0.000 -10.071   0.000  0.00  0.00     0.121 C 
HETATM   30  C   UNK     0       2.674  -6.963   0.000  0.00  0.00     0.048 A 
ENDBRANCH  12  24
TORSDOF 3
