REMARK  7 active torsions:
REMARK  status: ('A' for Active; 'I' for Inactive)
REMARK    1  A    between atoms: C_3  and  C_13 
REMARK    2  A    between atoms: C_3  and  C_17 
REMARK    3  A    between atoms: C_5  and  N_21 
REMARK    4  A    between atoms: C_8  and  C_16 
REMARK    5  A    between atoms: N_21  and  S_22 
REMARK    6  A    between atoms: S_22  and  C_25 
REMARK    7  A    between atoms: C_25  and  C_26 
ROOT
HETATM    1  C   UNK     0      20.641 -20.379   0.000  0.00  0.00     0.133 C 
HETATM    2  O   UNK     0      19.611 -19.235   0.000  0.00  0.00    -0.190 OA
ENDROOT
BRANCH   1   3
HETATM    3  C   UNK     0      20.165 -21.844   0.000  0.00  0.00     0.027 A 
HETATM    4  C   UNK     0      21.070 -23.090   0.000  0.00  0.00     0.155 A 
HETATM    5  N   UNK     0      20.165 -24.335   0.000  0.00  0.00    -0.248 NA
HETATM    6  C   UNK     0      18.700 -23.860   0.000  0.00  0.00     0.150 A 
HETATM    7  N   UNK     0      17.367 -24.630   0.000  0.00  0.00    -0.249 NA
HETATM    8  C   UNK     0      18.700 -22.320   0.000  0.00  0.00     0.017 A 
HETATM    9  C   UNK     0      16.033 -23.860   0.000  0.00  0.00     0.149 A 
HETATM   10  C   UNK     0      16.033 -22.320   0.000  0.00  0.00    -0.023 A 
HETATM   11  C   UNK     0      17.367 -21.550   0.000  0.00  0.00     0.052 A 
BRANCH  10  12
HETATM   12  C   UNK     0      14.699 -21.550   0.000  0.00  0.00    -0.049 A 
HETATM   13  C   UNK     0      14.699 -20.010   0.000  0.00  0.00     0.027 A 
HETATM   14  C   UNK     0      13.366 -19.240   0.000  0.00  0.00     0.038 A 
HETATM   15  C   UNK     0      12.032 -20.010   0.000  0.00  0.00     0.014 A 
HETATM   16  C   UNK     0      12.032 -21.550   0.000  0.00  0.00     0.038 A 
HETATM   17 Cl   UNK     0      10.698 -19.240   0.000  0.00  0.00    -0.092 Cl
HETATM   18  C   UNK     0      13.366 -22.320   0.000  0.00  0.00     0.027 A 
ENDBRANCH  10  12
ENDBRANCH   1   3
BRANCH   1  19
HETATM   19  C   UNK     0      22.147 -20.059   0.000  0.00  0.00     0.077 A 
HETATM   20  C   UNK     0      23.178 -21.203   0.000  0.00  0.00     0.158 A 
HETATM   21  C   UNK     0      24.684 -20.883   0.000  0.00  0.00     0.099 A 
HETATM   22  F   UNK     0      22.702 -22.668   0.000  0.00  0.00    -0.203 F 
HETATM   23  C   UNK     0      25.160 -19.419   0.000  0.00  0.00     0.056 A 
HETATM   24  C   UNK     0      24.130 -18.274   0.000  0.00  0.00     0.063 A 
HETATM   25  C   UNK     0      22.623 -18.594   0.000  0.00  0.00     0.122 A 
HETATM   26  F   UNK     0      21.593 -17.450   0.000  0.00  0.00    -0.209 F 
BRANCH  21  27
HETATM   27  N   UNK     0      25.715 -22.028   0.000  0.00  0.00    -0.164 NA
BRANCH  27  28
HETATM   28  S   UNK     0      27.221 -21.707   0.000  0.00  0.00     0.264 S 
HETATM   29  O   UNK     0      27.541 -23.214   0.000  0.00  0.00    -0.203 OA
HETATM   30  O   UNK     0      26.901 -20.201   0.000  0.00  0.00    -0.203 OA
BRANCH  28  31
HETATM   31  C   UNK     0      28.727 -21.387   0.000  0.00  0.00     0.146 C 
BRANCH  31  32
HETATM   32  C   UNK     0      29.758 -22.532   0.000  0.00  0.00     0.019 C 
HETATM   33  C   UNK     0      31.264 -22.211   0.000  0.00  0.00     0.001 C 
ENDBRANCH  31  32
ENDBRANCH  28  31
ENDBRANCH  27  28
ENDBRANCH  21  27
ENDBRANCH   1  19
TORSDOF 7
