REMARK  7 active torsions:
REMARK  status: ('A' for Active; 'I' for Inactive)
REMARK    1  A    between atoms: C_2  and  C_3 
REMARK    2  A    between atoms: N_4  and  C_17 
REMARK    3  A    between atoms: C_5  and  C_8 
REMARK    4  A    between atoms: C_8  and  C_27 
REMARK    5  A    between atoms: C_44  and  C_46 
REMARK    6  A    between atoms: C_44  and  C_53 
REMARK    7  A    between atoms: C_57  and  O_58 
ROOT
HETATM    1  C   UNK     0       4.345  -0.993   0.000  0.00  0.00     0.030 A 
HETATM    2  C   UNK     0       3.547  -2.328   0.000  0.00  0.00     0.119 A 
HETATM    3  N   UNK     0       2.008  -2.313   0.000  0.00  0.00    -0.336 N 
HETATM    4  C   UNK     0       6.631  -2.337   0.000  0.00  0.00     0.037 A 
HETATM    5  C   UNK     0       5.873  -1.005   0.000  0.00  0.00     0.107 A 
HETATM    6  C   UNK     0       1.266  -0.963   0.000  0.00  0.00     0.016 A 
HETATM    7  C   UNK     0       2.050   0.365   0.000  0.00  0.00     0.038 A 
HETATM    8  C   UNK     0      -0.295   1.656   0.000  0.00  0.00    -0.035 A 
HETATM    9  C   UNK     0      -0.244  -1.012   0.000  0.00  0.00     0.064 A 
HETATM   10  C   UNK     0       1.240   1.693   0.000  0.00  0.00     0.028 A 
HETATM   11  N   UNK     0       6.664   0.327   0.000  0.00  0.00    -0.377 N 
HETATM   12  C   UNK     0      -1.036   0.317   0.000  0.00  0.00    -0.028 A 
HETATM   13  C   UNK     0       3.592   0.361   0.000  0.00  0.00     0.030 A 
HETATM   14  C   UNK     0       8.157  -2.359   0.000  0.00  0.00     0.008 A 
HETATM   15  C   UNK     0       5.791   1.654   0.000  0.00  0.00     0.097 A 
HETATM   16  C   UNK     0       8.945  -1.038   0.000  0.00  0.00     0.024 A 
HETATM   17  C   UNK     0       7.375  -3.677   0.000  0.00  0.00     0.027 A 
HETATM   18  C   UNK     0       8.202   0.312   0.000  0.00  0.00     0.097 A 
HETATM   19  O   UNK     0      -2.625   0.339   0.000  0.00  0.00     0.000 OA
HETATM   20  C   UNK     0      -3.546  -1.215   0.000  0.00  0.00     0.000 C 
HETATM   21  C   UNK     0       8.917  -3.681   0.000  0.00  0.00     0.003 A 
HETATM   22  C   UNK     0      -2.284   4.964   0.000  0.00  0.00     0.120 A 
HETATM   23  C   UNK     0      -3.625   5.734   0.000  0.00  0.00     0.066 A 
HETATM   24  C   UNK     0      -3.625   7.274   0.000  0.00  0.00    -0.005 A 
HETATM   25  N   UNK     0      -4.947   4.964   0.000  0.00  0.00    -0.254 NA
HETATM   26  C   UNK     0      -6.285   7.282   0.000  0.00  0.00    -0.011 A 
HETATM   27  C   UNK     0      -6.285   5.742   0.000  0.00  0.00     0.054 A 
HETATM   28  N   UNK     0       0.232   8.246   0.000  0.00  0.00    -0.253 NA
HETATM   29  C   UNK     0      -0.942   5.734   0.000  0.00  0.00    -0.024 A 
HETATM   30  C   UNK     0      -2.295   8.052   0.000  0.00  0.00     0.064 A 
HETATM   31  C   UNK     0       2.425   6.543   0.000  0.00  0.00     0.144 A 
HETATM   32  C   UNK     0       0.271   4.785   0.000  0.00  0.00     0.040 A 
HETATM   33  C   UNK     0       1.741   7.919   0.000  0.00  0.00     0.107 A 
HETATM   34  C   UNK     0       1.002   6.605   0.000  0.00  0.00     0.086 A 
HETATM   35  C   UNK     0      -0.957   7.282   0.000  0.00  0.00     0.011 A 
HETATM   36  C   UNK     0       1.772   5.159   0.000  0.00  0.00     0.054 A 
HETATM   37  O   UNK     0       4.090   7.554   0.000  0.00  0.00    -0.222 OA
HETATM   38  C   UNK     0      -7.623   8.044   0.000  0.00  0.00     0.027 A 
HETATM   39  C   UNK     0      -7.607   4.956   0.000  0.00  0.00     0.045 A 
HETATM   40  C   UNK     0      -8.945   7.266   0.000  0.00  0.00     0.005 A 
HETATM   41  C   UNK     0      -8.945   5.726   0.000  0.00  0.00     0.007 A 
HETATM   42  C   UNK     0      -3.392   3.059   0.000  0.00  0.00     0.281 A 
HETATM   43  O   UNK     0      -2.630   1.736   0.000  0.00  0.00    -0.189 OA
ENDROOT
BRANCH  42  44
HETATM   44  O   UNK     0      -4.924   3.066   0.000  0.00  0.00    -0.326 OA
HETATM   45  C   UNK     0      -5.694   1.744   0.000  0.00  0.00     0.177 C 
ENDBRANCH  42  44
BRANCH  31  46
HETATM   46  C   UNK     0       3.514   5.462   0.000  0.00  0.00    -0.022 C 
HETATM   47  C   UNK     0       5.054   5.470   0.000  0.00  0.00     0.028 C 
ENDBRANCH  31  46
BRANCH   2  48
HETATM   48  C   UNK     0       4.305  -3.660   0.000  0.00  0.00     0.088 A 
HETATM   49  O   UNK     0       5.057  -4.996   0.000  0.00  0.00     0.000 OA
HETATM   50  O   UNK     0       4.691  -6.084   0.000  0.00  0.00     0.000 OA
HETATM   51  C   UNK     0       5.838  -3.679   0.000  0.00  0.00     0.106 A 
HETATM   52  C   UNK     0       5.951  -6.101   0.000  0.00  0.00     0.116 A 
HETATM   53  O   UNK     0       3.854  -7.035   0.000  0.00  0.00     0.000 OA
HETATM   54  O   UNK     0       6.589  -5.015   0.000  0.00  0.00    -0.333 OA
HETATM   55  C   UNK     0       6.569  -7.199   0.000  0.00  0.00     0.028 C 
HETATM   56  C   UNK     0       3.078  -5.687   0.000  0.00  0.00     0.133 A 
HETATM   57  C   UNK     0       3.083  -8.246   0.000  0.00  0.00     0.000 C 
HETATM   58  O   UNK     0       1.670  -5.755   0.000  0.00  0.00    -0.193 OA
ENDBRANCH   2  48
BRANCH   3  59
HETATM   59  C   UNK     0       1.220  -3.634   0.000  0.00  0.00     0.288 C 
HETATM   60  O   UNK     0      -0.327  -3.606   0.000  0.00  0.00    -0.193 OA
ENDBRANCH   3  59
TORSDOF 7
