REMARK  3 active torsions:
REMARK  status: ('A' for Active; 'I' for Inactive)
REMARK    1  A    between atoms: C_4  and  C_27 
REMARK    2  A    between atoms: C_5  and  C_37 
REMARK    3  A    between atoms: C_9  and  O_35 
ROOT
HETATM    1  N   UNK     0      -2.678   3.418   0.000  0.00  0.00    -0.361 N 
HETATM    2  C   UNK     0      -2.674   1.876   0.000  0.00  0.00     0.096 A 
HETATM    3  C   UNK     0      -1.343   1.115   0.000  0.00  0.00     0.103 A 
HETATM    4  C   UNK     0      -0.009   1.886   0.000  0.00  0.00    -0.021 A 
HETATM    5  C   UNK     0      -0.015   3.428   0.000  0.00  0.00    -0.026 A 
HETATM    6  C   UNK     0      -1.355   4.198   0.000  0.00  0.00     0.120 A 
HETATM    7  C   UNK     0      -1.339  -0.426   0.000  0.00  0.00     0.011 A 
HETATM    8  C   UNK     0      -2.709  -1.131   0.000  0.00  0.00     0.092 A 
HETATM    9  C   UNK     0      -3.873  -2.146   0.000  0.00  0.00     0.275 A 
HETATM   10  C   UNK     0      -1.373  -1.886   0.000  0.00  0.00     0.021 A 
HETATM   11  C   UNK     0      -1.364  -3.422   0.000  0.00  0.00    -0.047 A 
HETATM   12  C   UNK     0      -0.030  -4.177   0.000  0.00  0.00     0.060 A 
HETATM   13  C   UNK     0      -0.060  -1.107   0.000  0.00  0.00    -0.003 A 
HETATM   14  C   UNK     0       1.275  -1.856   0.000  0.00  0.00     0.033 A 
HETATM   15  C   UNK     0       1.299  -3.391   0.000  0.00  0.00     0.013 A 
HETATM   16  N   UNK     0       2.767  -3.843   0.000  0.00  0.00    -0.359 N 
HETATM   17  C   UNK     0       2.728  -1.358   0.000  0.00  0.00     0.035 A 
HETATM   18  C   UNK     0       3.648  -2.591   0.000  0.00  0.00     0.143 A 
HETATM   19  C   UNK     0       5.168  -2.412   0.000  0.00  0.00     0.173 A 
HETATM   20  C   UNK     0       5.779  -1.002   0.000  0.00  0.00     0.068 A 
HETATM   21  C   UNK     0       4.862   0.225   0.000  0.00  0.00     0.001 A 
HETATM   22  C   UNK     0       5.477   1.631   0.000  0.00  0.00    -0.003 A 
HETATM   23  C   UNK     0       4.566   2.876   0.000  0.00  0.00     0.024 A 
HETATM   24  C   UNK     0       3.032   2.705   0.000  0.00  0.00     0.101 A 
HETATM   25  C   UNK     0       3.337   0.051   0.000  0.00  0.00     0.138 A 
HETATM   26  N   UNK     0       2.409   1.289   0.000  0.00  0.00    -0.360 N 
HETATM   27  C   UNK     0       0.945   0.790   0.000  0.00  0.00     0.027 A 
HETATM   28  C   UNK     0       0.967  -0.757   0.000  0.00  0.00     0.036 A 
HETATM   29  C   UNK     0       6.338   0.638   0.000  0.00  0.00    -0.020 A 
HETATM   30  C   UNK     0       6.720   2.130   0.000  0.00  0.00    -0.006 A 
HETATM   31  C   UNK     0       3.266  -5.300   0.000  0.00  0.00     0.125 C 
HETATM   32  O   UNK     0      -2.693  -4.202   0.000  0.00  0.00     0.000 OA
HETATM   33  O   UNK     0      -3.566  -3.650   0.000  0.00  0.00    -0.190 OA
HETATM   34  C   UNK     0      -2.681  -5.742   0.000  0.00  0.00     0.000 C 
HETATM   35  C   UNK     0       6.502  -3.181   0.000  0.00  0.00     0.160 A 
HETATM   36  O   UNK     0       5.160  -3.942   0.000  0.00  0.00    -0.219 OA
HETATM   37  O   UNK     0       6.503  -4.721   0.000  0.00  0.00    -0.190 OA
HETATM   38  O   UNK     0       7.835  -2.410   0.000  0.00  0.00     0.000 OA
HETATM   39  C   UNK     0       9.170  -3.179   0.000  0.00  0.00     0.007 A 
HETATM   40  C   UNK     0      -9.305   2.863   0.000  0.00  0.00     0.005 A 
HETATM   41  C   UNK     0      -9.780   1.393   0.000  0.00  0.00     0.007 A 
HETATM   42  C   UNK     0      -8.747   0.250   0.000  0.00  0.00     0.045 A 
HETATM   43  C   UNK     0      -7.804   3.189   0.000  0.00  0.00     0.027 A 
HETATM   44  C   UNK     0      -6.767   2.052   0.000  0.00  0.00    -0.010 A 
HETATM   45  C   UNK     0      -7.242   0.575   0.000  0.00  0.00     0.054 A 
HETATM   46  N   UNK     0      -5.984  -0.333   0.000  0.00  0.00    -0.255 NA
HETATM   47  C   UNK     0      -4.732   0.582   0.000  0.00  0.00     0.061 A 
HETATM   48  C   UNK     0      -5.215   2.057   0.000  0.00  0.00     0.011 A 
HETATM   49  C   UNK     0      -4.497   3.414   0.000  0.00  0.00     0.125 A 
HETATM   50  O   UNK     0       7.113  -1.773   0.000  0.00  0.00     0.000 OA
HETATM   51  C   UNK     0       8.447  -1.002   0.000  0.00  0.00     0.130 A 
HETATM   52  C   UNK     0       9.780  -1.773   0.000  0.00  0.00     0.056 A 
HETATM   53  O   UNK     0       8.447   0.537   0.000  0.00  0.00    -0.193 OA
ENDROOT
BRANCH   5  54
HETATM   54  C   UNK     0       1.316   4.202   0.000  0.00  0.00     0.024 C 
HETATM   55  C   UNK     0       1.312   5.742   0.000  0.00  0.00     0.005 C 
ENDBRANCH   5  54
BRANCH   9  56
HETATM   56  O   UNK     0      -5.332  -1.652   0.000  0.00  0.00    -0.326 OA
HETATM   57  C   UNK     0      -6.489  -2.669   0.000  0.00  0.00     0.177 C 
ENDBRANCH   9  56
TORSDOF 3
