REMARK  4 active torsions:
REMARK  status: ('A' for Active; 'I' for Inactive)
REMARK    1  A    between atoms: C_5  and  C_7 
REMARK    2  A    between atoms: C_9  and  N_14 
REMARK       I    between atoms: N_14  and  C_15 
REMARK    3  A    between atoms: C_15  and  C_16 
REMARK    4  A    between atoms: C_20  and  S_24 
ROOT
HETATM    1  N   UNK     0      22.358 -19.861   0.000  0.00  0.00    -0.229 NA
HETATM    2  C   UNK     0      23.668 -19.104   0.000  0.00  0.00     0.209 C 
HETATM    3  O   UNK     0      23.668 -17.556   0.000  0.00  0.00    -0.170 OA
ENDROOT
BRANCH   1   4
HETATM    4  C   UNK     0      21.003 -19.079   0.000  0.00  0.00     0.044 A 
HETATM    5  C   UNK     0      19.669 -19.849   0.000  0.00  0.00     0.069 A 
HETATM    6  C   UNK     0      18.344 -19.084   0.000  0.00  0.00     0.003 A 
HETATM    7  C   UNK     0      18.344 -17.544   0.000  0.00  0.00     0.033 A 
HETATM    8  C   UNK     0      19.677 -16.774   0.000  0.00  0.00     0.044 A 
HETATM    9 Cl   UNK     0      17.002 -16.769   0.000  0.00  0.00    -0.087 Cl
HETATM   10  C   UNK     0      21.003 -17.539   0.000  0.00  0.00     0.047 A 
BRANCH   6  11
HETATM   11  C   UNK     0      16.989 -19.866   0.000  0.00  0.00     0.051 A 
HETATM   12  C   UNK     0      16.989 -21.406   0.000  0.00  0.00     0.045 A 
HETATM   13  C   UNK     0      15.656 -22.176   0.000  0.00  0.00     0.008 A 
HETATM   14  C   UNK     0      14.322 -21.406   0.000  0.00  0.00     0.027 A 
HETATM   15  C   UNK     0      14.322 -19.866   0.000  0.00  0.00     0.125 A 
HETATM   16  N   UNK     0      15.656 -19.096   0.000  0.00  0.00    -0.275 NA
ENDBRANCH   6  11
ENDBRANCH   1   4
BRANCH   2  17
HETATM   17  C   UNK     0      24.977 -19.859   0.000  0.00  0.00     0.028 A 
HETATM   18  C   UNK     0      24.977 -21.406   0.000  0.00  0.00     0.032 A 
HETATM   19  C   UNK     0      26.311 -22.175   0.000  0.00  0.00     0.021 A 
HETATM   20  C   UNK     0      27.644 -21.405   0.000  0.00  0.00     0.113 A 
HETATM   21  C   UNK     0      27.644 -19.859   0.000  0.00  0.00     0.054 A 
HETATM   22  C   UNK     0      26.310 -19.089   0.000  0.00  0.00     0.036 A 
HETATM   23 Cl   UNK     0      26.310 -17.556   0.000  0.00  0.00    -0.087 Cl
BRANCH  20  24
HETATM   24  S   UNK     0      28.978 -22.175   0.000  0.00  0.00     0.171 S 
HETATM   25  C   UNK     0      30.311 -22.945   0.000  0.00  0.00     0.140 C 
HETATM   26  O   UNK     0      29.748 -20.841   0.000  0.00  0.00    -0.226 OA
HETATM   27  O   UNK     0      28.208 -23.508   0.000  0.00  0.00    -0.226 OA
ENDBRANCH  20  24
ENDBRANCH   2  17
TORSDOF 4
